#======================================================================

# CRYSTAL DATA

#----------------------------------------------------------------------

data_VESTA_phase_1


_chemical_name_common                  'generated by VMD'
_cell_length_a                         58.62562
_cell_length_b                         58.62562
_cell_length_c                         58.62562
_cell_angle_alpha                      90
_cell_angle_beta                       90
_cell_angle_gamma                      90
_space_group_name_H-M_alt              'Custom'
_space_group_IT_number                 1

loop_
_space_group_symop_operation_xyz
   'x, y, z'

loop_
   _atom_site_label
   _atom_site_occupancy
   _atom_site_fract_x
   _atom_site_fract_y
   _atom_site_fract_z
   _atom_site_adp_type
   _atom_site_B_iso_or_equiv
   _atom_site_type_symbol
   Au1        1.0     0.378261      0.343479      0.134783     Biso  1.000000 Au
   Au2        1.0     0.413044      0.308695      0.134783     Biso  1.000000 Au
   Au3        1.0     0.447826      0.343479      0.134783     Biso  1.000000 Au
   Au4        1.0     0.482609      0.308695      0.134783     Biso  1.000000 Au
   Au5        1.0     0.517391      0.343479      0.134783     Biso  1.000000 Au
   Au6        1.0     0.552174      0.308695      0.134783     Biso  1.000000 Au
   Au7        1.0     0.586956      0.343479      0.134783     Biso  1.000000 Au
   Au8        1.0     0.308695      0.413044      0.134783     Biso  1.000000 Au
   Au9        1.0     0.343479      0.378261      0.134783     Biso  1.000000 Au
   Au10       1.0     0.378261      0.413044      0.134783     Biso  1.000000 Au
   Au11       1.0     0.413044      0.378261      0.134783     Biso  1.000000 Au
   Au12       1.0     0.413044      0.413044      0.100000     Biso  1.000000 Au
   Au13       1.0     0.447826      0.378261      0.100000     Biso  1.000000 Au
   Au14       1.0     0.447826      0.413044      0.134783     Biso  1.000000 Au
   Au15       1.0     0.482609      0.378261      0.134783     Biso  1.000000 Au
   Au16       1.0     0.482609      0.413044      0.100000     Biso  1.000000 Au
   Au17       1.0     0.517391      0.378261      0.100000     Biso  1.000000 Au
   Au18       1.0     0.517391      0.413044      0.134783     Biso  1.000000 Au
   Au19       1.0     0.552174      0.378261      0.134783     Biso  1.000000 Au
   Au20       1.0     0.552174      0.413044      0.100000     Biso  1.000000 Au
   Au21       1.0     0.586956      0.413044      0.134783     Biso  1.000000 Au
   Au22       1.0     0.621738      0.378261      0.134783     Biso  1.000000 Au
   Au23       1.0     0.656521      0.413044      0.134783     Biso  1.000000 Au
   Au24       1.0     0.308695      0.482609      0.134783     Biso  1.000000 Au
   Au25       1.0     0.343479      0.447826      0.134783     Biso  1.000000 Au
   Au26       1.0     0.378261      0.447826      0.100000     Biso  1.000000 Au
   Au27       1.0     0.378261      0.482609      0.134783     Biso  1.000000 Au
   Au28       1.0     0.413044      0.447826      0.134783     Biso  1.000000 Au
   Au29       1.0     0.413044      0.482609      0.100000     Biso  1.000000 Au
   Au30       1.0     0.447826      0.447826      0.100000     Biso  1.000000 Au
   Au31       1.0     0.447826      0.482609      0.134783     Biso  1.000000 Au
   Au32       1.0     0.482609      0.447826      0.134783     Biso  1.000000 Au
   Au33       1.0     0.482609      0.482609      0.100000     Biso  1.000000 Au
   Au34       1.0     0.517391      0.447826      0.100000     Biso  1.000000 Au
   Au35       1.0     0.517391      0.482609      0.134783     Biso  1.000000 Au
   Au36       1.0     0.552174      0.447826      0.134783     Biso  1.000000 Au
   Au37       1.0     0.552174      0.482609      0.100000     Biso  1.000000 Au
   Au38       1.0     0.586956      0.447826      0.100000     Biso  1.000000 Au
   Au39       1.0     0.586956      0.482609      0.134783     Biso  1.000000 Au
   Au40       1.0     0.621738      0.447826      0.134783     Biso  1.000000 Au
   Au41       1.0     0.621738      0.482609      0.100000     Biso  1.000000 Au
   Au42       1.0     0.656521      0.482609      0.134783     Biso  1.000000 Au
   Au43       1.0     0.691305      0.447826      0.134783     Biso  1.000000 Au
   Au44       1.0     0.308695      0.552174      0.134783     Biso  1.000000 Au
   Au45       1.0     0.343479      0.517391      0.134783     Biso  1.000000 Au
   Au46       1.0     0.378261      0.517391      0.100000     Biso  1.000000 Au
   Au47       1.0     0.378261      0.552174      0.134783     Biso  1.000000 Au
   Au48       1.0     0.413044      0.517391      0.134783     Biso  1.000000 Au
   Au49       1.0     0.413044      0.552174      0.100000     Biso  1.000000 Au
   Au50       1.0     0.447826      0.517391      0.100000     Biso  1.000000 Au
   Au51       1.0     0.447826      0.552174      0.134783     Biso  1.000000 Au
   Au52       1.0     0.482609      0.517391      0.134783     Biso  1.000000 Au
   Au53       1.0     0.482609      0.552174      0.100000     Biso  1.000000 Au
   Au54       1.0     0.517391      0.517391      0.100000     Biso  1.000000 Au
   Au55       1.0     0.517391      0.552174      0.134783     Biso  1.000000 Au
   Au56       1.0     0.552174      0.517391      0.134783     Biso  1.000000 Au
   Au57       1.0     0.552174      0.552174      0.100000     Biso  1.000000 Au
   Au58       1.0     0.586956      0.517391      0.100000     Biso  1.000000 Au
   Au59       1.0     0.586956      0.552174      0.134783     Biso  1.000000 Au
   Au60       1.0     0.621738      0.517391      0.134783     Biso  1.000000 Au
   Au61       1.0     0.621738      0.552174      0.100000     Biso  1.000000 Au
   Au62       1.0     0.656521      0.552174      0.134783     Biso  1.000000 Au
   Au63       1.0     0.691305      0.517391      0.134783     Biso  1.000000 Au
   Au64       1.0     0.343479      0.586956      0.134783     Biso  1.000000 Au
   Au65       1.0     0.378261      0.621738      0.134783     Biso  1.000000 Au
   Au66       1.0     0.413044      0.586956      0.134783     Biso  1.000000 Au
   Au67       1.0     0.447826      0.586956      0.100000     Biso  1.000000 Au
   Au68       1.0     0.447826      0.621738      0.134783     Biso  1.000000 Au
   Au69       1.0     0.482609      0.586956      0.134783     Biso  1.000000 Au
   Au70       1.0     0.482609      0.621738      0.100000     Biso  1.000000 Au
   Au71       1.0     0.517391      0.586956      0.100000     Biso  1.000000 Au
   Au72       1.0     0.517391      0.621738      0.134783     Biso  1.000000 Au
   Au73       1.0     0.552174      0.586956      0.134783     Biso  1.000000 Au
   Au74       1.0     0.552174      0.621738      0.100000     Biso  1.000000 Au
   Au75       1.0     0.586956      0.586956      0.100000     Biso  1.000000 Au
   Au76       1.0     0.586956      0.621738      0.134783     Biso  1.000000 Au
   Au77       1.0     0.621738      0.586956      0.134783     Biso  1.000000 Au
   Au78       1.0     0.656521      0.621738      0.134783     Biso  1.000000 Au
   Au79       1.0     0.691305      0.586956      0.134783     Biso  1.000000 Au
   Au80       1.0     0.413044      0.656521      0.134783     Biso  1.000000 Au
   Au81       1.0     0.447826      0.691305      0.134783     Biso  1.000000 Au
   Au82       1.0     0.482609      0.656521      0.134783     Biso  1.000000 Au
   Au83       1.0     0.517391      0.691305      0.134783     Biso  1.000000 Au
   Au84       1.0     0.552174      0.656521      0.134783     Biso  1.000000 Au
   Au85       1.0     0.586956      0.691305      0.134783     Biso  1.000000 Au
   Au86       1.0     0.621738      0.656521      0.134783     Biso  1.000000 Au
   Au87       1.0     0.447826      0.204349      0.204349     Biso  1.000000 Au
   Au88       1.0     0.517391      0.204349      0.204349     Biso  1.000000 Au
   Au89       1.0     0.308695      0.273914      0.204349     Biso  1.000000 Au
   Au90       1.0     0.343479      0.239130      0.204349     Biso  1.000000 Au
   Au91       1.0     0.378261      0.273914      0.204349     Biso  1.000000 Au
   Au92       1.0     0.413044      0.239130      0.204349     Biso  1.000000 Au
   Au93       1.0     0.413044      0.273914      0.169565     Biso  1.000000 Au
   Au94       1.0     0.447826      0.239130      0.169565     Biso  1.000000 Au
   Au95       1.0     0.447826      0.273914      0.204349     Biso  1.000000 Au
   Au96       1.0     0.482609      0.239130      0.204349     Biso  1.000000 Au
   Au97       1.0     0.482609      0.273914      0.169565     Biso  1.000000 Au
   Au98       1.0     0.517391      0.239130      0.169565     Biso  1.000000 Au
   Au99       1.0     0.517391      0.273914      0.204349     Biso  1.000000 Au
   Au100      1.0     0.552174      0.239130      0.204349     Biso  1.000000 Au
   Au101      1.0     0.552174      0.273914      0.169565     Biso  1.000000 Au
   Au102      1.0     0.586956      0.273914      0.204349     Biso  1.000000 Au
   Au103      1.0     0.621738      0.239130      0.204349     Biso  1.000000 Au
   Au104      1.0     0.621738      0.273914      0.169565     Biso  1.000000 Au
   Au105      1.0     0.656521      0.273914      0.204349     Biso  1.000000 Au
   Au106      1.0     0.239130      0.343479      0.204349     Biso  1.000000 Au
   Au107      1.0     0.273914      0.308695      0.204349     Biso  1.000000 Au
   Au108      1.0     0.308695      0.343479      0.204349     Biso  1.000000 Au
   Au109      1.0     0.343479      0.308695      0.204349     Biso  1.000000 Au
   Au110      1.0     0.343479      0.343479      0.169565     Biso  1.000000 Au
   Au111      1.0     0.378261      0.308695      0.169565     Biso  1.000000 Au
   Au112      1.0     0.378261      0.343479      0.204349     Biso  1.000000 Au
   Au113      1.0     0.413044      0.308695      0.204349     Biso  1.000000 Au
   Au114      1.0     0.413044      0.343479      0.169565     Biso  1.000000 Au
   Au115      1.0     0.447826      0.308695      0.169565     Biso  1.000000 Au
   Au116      1.0     0.447826      0.343479      0.204349     Biso  1.000000 Au
   Au117      1.0     0.482609      0.308695      0.204349     Biso  1.000000 Au
   Au118      1.0     0.482609      0.343479      0.169565     Biso  1.000000 Au
   Au119      1.0     0.517391      0.308695      0.169565     Biso  1.000000 Au
   Au120      1.0     0.517391      0.343479      0.204349     Biso  1.000000 Au
   Au121      1.0     0.552174      0.308695      0.204349     Biso  1.000000 Au
   Au122      1.0     0.552174      0.343479      0.169565     Biso  1.000000 Au
   Au123      1.0     0.586956      0.308695      0.169565     Biso  1.000000 Au
   Au124      1.0     0.586956      0.343479      0.204349     Biso  1.000000 Au
   Au125      1.0     0.621738      0.308695      0.204349     Biso  1.000000 Au
   Au126      1.0     0.621738      0.343479      0.169565     Biso  1.000000 Au
   Au127      1.0     0.656521      0.308695      0.169565     Biso  1.000000 Au
   Au128      1.0     0.656521      0.343479      0.204349     Biso  1.000000 Au
   Au129      1.0     0.691305      0.308695      0.204349     Biso  1.000000 Au
   Au130      1.0     0.691305      0.343479      0.169565     Biso  1.000000 Au
   Au131      1.0     0.726086      0.343479      0.204349     Biso  1.000000 Au
   Au132      1.0     0.239130      0.413044      0.204349     Biso  1.000000 Au
   Au133      1.0     0.273914      0.378261      0.204349     Biso  1.000000 Au
   Au134      1.0     0.273914      0.413044      0.169565     Biso  1.000000 Au
   Au135      1.0     0.308695      0.378261      0.169565     Biso  1.000000 Au
   Au136      1.0     0.308695      0.413044      0.204349     Biso  1.000000 Au
   Au137      1.0     0.343479      0.378261      0.204349     Biso  1.000000 Au
   Au138      1.0     0.343479      0.413044      0.169565     Biso  1.000000 Au
   Au139      1.0     0.378261      0.378261      0.169565     Biso  1.000000 Au
   Au140      1.0     0.378261      0.413044      0.204349     Biso  1.000000 Au
   Au141      1.0     0.413044      0.378261      0.204349     Biso  1.000000 Au
   Au142      1.0     0.413044      0.413044      0.169565     Biso  1.000000 Au
   Au143      1.0     0.447826      0.378261      0.169565     Biso  1.000000 Au
   Au144      1.0     0.447826      0.413044      0.204349     Biso  1.000000 Au
   Au145      1.0     0.482609      0.378261      0.204349     Biso  1.000000 Au
   Au146      1.0     0.482609      0.413044      0.169565     Biso  1.000000 Au
   Au147      1.0     0.517391      0.378261      0.169565     Biso  1.000000 Au
   Au148      1.0     0.517391      0.413044      0.204349     Biso  1.000000 Au
   Au149      1.0     0.552174      0.378261      0.204349     Biso  1.000000 Au
   Au150      1.0     0.552174      0.413044      0.169565     Biso  1.000000 Au
   Au151      1.0     0.586956      0.378261      0.169565     Biso  1.000000 Au
   Au152      1.0     0.586956      0.413044      0.204349     Biso  1.000000 Au
   Au153      1.0     0.621738      0.378261      0.204349     Biso  1.000000 Au
   Au154      1.0     0.621738      0.413044      0.169565     Biso  1.000000 Au
   Au155      1.0     0.656521      0.378261      0.169565     Biso  1.000000 Au
   Au156      1.0     0.656521      0.413044      0.204349     Biso  1.000000 Au
   Au157      1.0     0.691305      0.378261      0.204349     Biso  1.000000 Au
   Au158      1.0     0.691305      0.413044      0.169565     Biso  1.000000 Au
   Au159      1.0     0.726086      0.378261      0.169565     Biso  1.000000 Au
   Au160      1.0     0.726086      0.413044      0.204349     Biso  1.000000 Au
   Au161      1.0     0.760870      0.378261      0.204349     Biso  1.000000 Au
   Au162      1.0     0.204349      0.447826      0.204349     Biso  1.000000 Au
   Au163      1.0     0.239130      0.447826      0.169565     Biso  1.000000 Au
   Au164      1.0     0.239130      0.482609      0.204349     Biso  1.000000 Au
   Au165      1.0     0.273914      0.447826      0.204349     Biso  1.000000 Au
   Au166      1.0     0.273914      0.482609      0.169565     Biso  1.000000 Au
   Au167      1.0     0.308695      0.447826      0.169565     Biso  1.000000 Au
   Au168      1.0     0.308695      0.482609      0.204349     Biso  1.000000 Au
   Au169      1.0     0.343479      0.447826      0.204349     Biso  1.000000 Au
   Au170      1.0     0.343479      0.482609      0.169565     Biso  1.000000 Au
   Au171      1.0     0.378261      0.447826      0.169565     Biso  1.000000 Au
   Au172      1.0     0.378261      0.482609      0.204349     Biso  1.000000 Au
   Au173      1.0     0.413044      0.447826      0.204349     Biso  1.000000 Au
   Au174      1.0     0.413044      0.482609      0.169565     Biso  1.000000 Au
   Au175      1.0     0.447826      0.447826      0.169565     Biso  1.000000 Au
   Au176      1.0     0.447826      0.482609      0.204349     Biso  1.000000 Au
   Au177      1.0     0.482609      0.447826      0.204349     Biso  1.000000 Au
   Au178      1.0     0.482609      0.482609      0.169565     Biso  1.000000 Au
   Au179      1.0     0.517391      0.447826      0.169565     Biso  1.000000 Au
   Au180      1.0     0.517391      0.482609      0.204349     Biso  1.000000 Au
   Au181      1.0     0.552174      0.447826      0.204349     Biso  1.000000 Au
   Au182      1.0     0.552174      0.482609      0.169565     Biso  1.000000 Au
   Au183      1.0     0.586956      0.447826      0.169565     Biso  1.000000 Au
   Au184      1.0     0.586956      0.482609      0.204349     Biso  1.000000 Au
   Au185      1.0     0.621738      0.447826      0.204349     Biso  1.000000 Au
   Au186      1.0     0.621738      0.482609      0.169565     Biso  1.000000 Au
   Au187      1.0     0.656521      0.447826      0.169565     Biso  1.000000 Au
   Au188      1.0     0.656521      0.482609      0.204349     Biso  1.000000 Au
   Au189      1.0     0.691305      0.447826      0.204349     Biso  1.000000 Au
   Au190      1.0     0.691305      0.482609      0.169565     Biso  1.000000 Au
   Au191      1.0     0.726086      0.447826      0.169565     Biso  1.000000 Au
   Au192      1.0     0.726086      0.482609      0.204349     Biso  1.000000 Au
   Au193      1.0     0.760870      0.447826      0.204349     Biso  1.000000 Au
   Au194      1.0     0.760870      0.482609      0.169565     Biso  1.000000 Au
   Au195      1.0     0.795651      0.482609      0.204349     Biso  1.000000 Au
   Au196      1.0     0.204349      0.517391      0.204349     Biso  1.000000 Au
   Au197      1.0     0.239130      0.517391      0.169565     Biso  1.000000 Au
   Au198      1.0     0.239130      0.552174      0.204349     Biso  1.000000 Au
   Au199      1.0     0.273914      0.517391      0.204349     Biso  1.000000 Au
   Au200      1.0     0.273914      0.552174      0.169565     Biso  1.000000 Au
   Au201      1.0     0.308695      0.517391      0.169565     Biso  1.000000 Au
   Au202      1.0     0.308695      0.552174      0.204349     Biso  1.000000 Au
   Au203      1.0     0.343479      0.517391      0.204349     Biso  1.000000 Au
   Au204      1.0     0.343479      0.552174      0.169565     Biso  1.000000 Au
   Au205      1.0     0.378261      0.517391      0.169565     Biso  1.000000 Au
   Au206      1.0     0.378261      0.552174      0.204349     Biso  1.000000 Au
   Au207      1.0     0.413044      0.517391      0.204349     Biso  1.000000 Au
   Au208      1.0     0.413044      0.552174      0.169565     Biso  1.000000 Au
   Au209      1.0     0.447826      0.517391      0.169565     Biso  1.000000 Au
   Au210      1.0     0.447826      0.552174      0.204349     Biso  1.000000 Au
   Au211      1.0     0.482609      0.517391      0.204349     Biso  1.000000 Au
   Au212      1.0     0.482609      0.552174      0.169565     Biso  1.000000 Au
   Au213      1.0     0.517391      0.517391      0.169565     Biso  1.000000 Au
   Au214      1.0     0.517391      0.552174      0.204349     Biso  1.000000 Au
   Au215      1.0     0.552174      0.517391      0.204349     Biso  1.000000 Au
   Au216      1.0     0.552174      0.552174      0.169565     Biso  1.000000 Au
   Au217      1.0     0.586956      0.517391      0.169565     Biso  1.000000 Au
   Au218      1.0     0.586956      0.552174      0.204349     Biso  1.000000 Au
   Au219      1.0     0.621738      0.517391      0.204349     Biso  1.000000 Au
   Au220      1.0     0.621738      0.552174      0.169565     Biso  1.000000 Au
   Au221      1.0     0.656521      0.517391      0.169565     Biso  1.000000 Au
   Au222      1.0     0.656521      0.552174      0.204349     Biso  1.000000 Au
   Au223      1.0     0.691305      0.517391      0.204349     Biso  1.000000 Au
   Au224      1.0     0.691305      0.552174      0.169565     Biso  1.000000 Au
   Au225      1.0     0.726086      0.517391      0.169565     Biso  1.000000 Au
   Au226      1.0     0.726086      0.552174      0.204349     Biso  1.000000 Au
   Au227      1.0     0.760870      0.517391      0.204349     Biso  1.000000 Au
   Au228      1.0     0.760870      0.552174      0.169565     Biso  1.000000 Au
   Au229      1.0     0.795651      0.552174      0.204349     Biso  1.000000 Au
   Au230      1.0     0.239130      0.621738      0.204349     Biso  1.000000 Au
   Au231      1.0     0.273914      0.586956      0.204349     Biso  1.000000 Au
   Au232      1.0     0.273914      0.621738      0.169565     Biso  1.000000 Au
   Au233      1.0     0.308695      0.586956      0.169565     Biso  1.000000 Au
   Au234      1.0     0.308695      0.621738      0.204349     Biso  1.000000 Au
   Au235      1.0     0.343479      0.586956      0.204349     Biso  1.000000 Au
   Au236      1.0     0.343479      0.621738      0.169565     Biso  1.000000 Au
   Au237      1.0     0.378261      0.586956      0.169565     Biso  1.000000 Au
   Au238      1.0     0.378261      0.621738      0.204349     Biso  1.000000 Au
   Au239      1.0     0.413044      0.586956      0.204349     Biso  1.000000 Au
   Au240      1.0     0.413044      0.621738      0.169565     Biso  1.000000 Au
   Au241      1.0     0.447826      0.586956      0.169565     Biso  1.000000 Au
   Au242      1.0     0.447826      0.621738      0.204349     Biso  1.000000 Au
   Au243      1.0     0.482609      0.586956      0.204349     Biso  1.000000 Au
   Au244      1.0     0.482609      0.621738      0.169565     Biso  1.000000 Au
   Au245      1.0     0.517391      0.586956      0.169565     Biso  1.000000 Au
   Au246      1.0     0.517391      0.621738      0.204349     Biso  1.000000 Au
   Au247      1.0     0.552174      0.586956      0.204349     Biso  1.000000 Au
   Au248      1.0     0.552174      0.621738      0.169565     Biso  1.000000 Au
   Au249      1.0     0.586956      0.586956      0.169565     Biso  1.000000 Au
   Au250      1.0     0.586956      0.621738      0.204349     Biso  1.000000 Au
   Au251      1.0     0.621738      0.586956      0.204349     Biso  1.000000 Au
   Au252      1.0     0.621738      0.621738      0.169565     Biso  1.000000 Au
   Au253      1.0     0.656521      0.586956      0.169565     Biso  1.000000 Au
   Au254      1.0     0.656521      0.621738      0.204349     Biso  1.000000 Au
   Au255      1.0     0.691305      0.586956      0.204349     Biso  1.000000 Au
   Au256      1.0     0.691305      0.621738      0.169565     Biso  1.000000 Au
   Au257      1.0     0.726086      0.586956      0.169565     Biso  1.000000 Au
   Au258      1.0     0.726086      0.621738      0.204349     Biso  1.000000 Au
   Au259      1.0     0.760870      0.586956      0.204349     Biso  1.000000 Au
   Au260      1.0     0.273914      0.656521      0.204349     Biso  1.000000 Au
   Au261      1.0     0.308695      0.656521      0.169565     Biso  1.000000 Au
   Au262      1.0     0.308695      0.691305      0.204349     Biso  1.000000 Au
   Au263      1.0     0.343479      0.656521      0.204349     Biso  1.000000 Au
   Au264      1.0     0.343479      0.691305      0.169565     Biso  1.000000 Au
   Au265      1.0     0.378261      0.656521      0.169565     Biso  1.000000 Au
   Au266      1.0     0.378261      0.691305      0.204349     Biso  1.000000 Au
   Au267      1.0     0.413044      0.656521      0.204349     Biso  1.000000 Au
   Au268      1.0     0.413044      0.691305      0.169565     Biso  1.000000 Au
   Au269      1.0     0.447826      0.656521      0.169565     Biso  1.000000 Au
   Au270      1.0     0.447826      0.691305      0.204349     Biso  1.000000 Au
   Au271      1.0     0.482609      0.656521      0.204349     Biso  1.000000 Au
   Au272      1.0     0.482609      0.691305      0.169565     Biso  1.000000 Au
   Au273      1.0     0.517391      0.656521      0.169565     Biso  1.000000 Au
   Au274      1.0     0.517391      0.691305      0.204349     Biso  1.000000 Au
   Au275      1.0     0.552174      0.656521      0.204349     Biso  1.000000 Au
   Au276      1.0     0.552174      0.691305      0.169565     Biso  1.000000 Au
   Au277      1.0     0.586956      0.656521      0.169565     Biso  1.000000 Au
   Au278      1.0     0.586956      0.691305      0.204349     Biso  1.000000 Au
   Au279      1.0     0.621738      0.656521      0.204349     Biso  1.000000 Au
   Au280      1.0     0.621738      0.691305      0.169565     Biso  1.000000 Au
   Au281      1.0     0.656521      0.656521      0.169565     Biso  1.000000 Au
   Au282      1.0     0.656521      0.691305      0.204349     Biso  1.000000 Au
   Au283      1.0     0.691305      0.656521      0.204349     Biso  1.000000 Au
   Au284      1.0     0.726086      0.691305      0.204349     Biso  1.000000 Au
   Au285      1.0     0.760870      0.656521      0.204349     Biso  1.000000 Au
   Au286      1.0     0.343479      0.726086      0.204349     Biso  1.000000 Au
   Au287      1.0     0.378261      0.726086      0.169565     Biso  1.000000 Au
   Au288      1.0     0.378261      0.760870      0.204349     Biso  1.000000 Au
   Au289      1.0     0.413044      0.726086      0.204349     Biso  1.000000 Au
   Au290      1.0     0.447826      0.726086      0.169565     Biso  1.000000 Au
   Au291      1.0     0.447826      0.760870      0.204349     Biso  1.000000 Au
   Au292      1.0     0.482609      0.726086      0.204349     Biso  1.000000 Au
   Au293      1.0     0.482609      0.760870      0.169565     Biso  1.000000 Au
   Au294      1.0     0.517391      0.726086      0.169565     Biso  1.000000 Au
   Au295      1.0     0.517391      0.760870      0.204349     Biso  1.000000 Au
   Au296      1.0     0.552174      0.726086      0.204349     Biso  1.000000 Au
   Au297      1.0     0.552174      0.760870      0.169565     Biso  1.000000 Au
   Au298      1.0     0.586956      0.726086      0.169565     Biso  1.000000 Au
   Au299      1.0     0.586956      0.760870      0.204349     Biso  1.000000 Au
   Au300      1.0     0.621738      0.726086      0.204349     Biso  1.000000 Au
   Au301      1.0     0.656521      0.760870      0.204349     Biso  1.000000 Au
   Au302      1.0     0.691305      0.726086      0.204349     Biso  1.000000 Au
   Au303      1.0     0.482609      0.795651      0.204349     Biso  1.000000 Au
   Au304      1.0     0.552174      0.795651      0.204349     Biso  1.000000 Au
   Au305      1.0     0.308695      0.204349      0.273914     Biso  1.000000 Au
   Au306      1.0     0.343479      0.204349      0.239130     Biso  1.000000 Au
   Au307      1.0     0.378261      0.204349      0.273914     Biso  1.000000 Au
   Au308      1.0     0.413044      0.169565      0.273914     Biso  1.000000 Au
   Au309      1.0     0.413044      0.204349      0.239130     Biso  1.000000 Au
   Au310      1.0     0.447826      0.169565      0.239130     Biso  1.000000 Au
   Au311      1.0     0.447826      0.204349      0.273914     Biso  1.000000 Au
   Au312      1.0     0.482609      0.169565      0.273914     Biso  1.000000 Au
   Au313      1.0     0.482609      0.204349      0.239130     Biso  1.000000 Au
   Au314      1.0     0.517391      0.169565      0.239130     Biso  1.000000 Au
   Au315      1.0     0.517391      0.204349      0.273914     Biso  1.000000 Au
   Au316      1.0     0.552174      0.169565      0.273914     Biso  1.000000 Au
   Au317      1.0     0.552174      0.204349      0.239130     Biso  1.000000 Au
   Au318      1.0     0.586956      0.204349      0.273914     Biso  1.000000 Au
   Au319      1.0     0.621738      0.169565      0.273914     Biso  1.000000 Au
   Au320      1.0     0.621738      0.204349      0.239130     Biso  1.000000 Au
   Au321      1.0     0.656521      0.204349      0.273914     Biso  1.000000 Au
   Au322      1.0     0.239130      0.273914      0.273914     Biso  1.000000 Au
   Au323      1.0     0.273914      0.239130      0.273914     Biso  1.000000 Au
   Au324      1.0     0.273914      0.273914      0.239130     Biso  1.000000 Au
   Au325      1.0     0.308695      0.239130      0.239130     Biso  1.000000 Au
   Au326      1.0     0.308695      0.273914      0.273914     Biso  1.000000 Au
   Au327      1.0     0.343479      0.239130      0.273914     Biso  1.000000 Au
   Au328      1.0     0.343479      0.273914      0.239130     Biso  1.000000 Au
   Au329      1.0     0.378261      0.239130      0.239130     Biso  1.000000 Au
   Au330      1.0     0.378261      0.273914      0.273914     Biso  1.000000 Au
   Au331      1.0     0.413044      0.239130      0.273914     Biso  1.000000 Au
   Au332      1.0     0.413044      0.273914      0.239130     Biso  1.000000 Au
   Au333      1.0     0.447826      0.239130      0.239130     Biso  1.000000 Au
   Au334      1.0     0.447826      0.273914      0.273914     Biso  1.000000 Au
   Au335      1.0     0.482609      0.239130      0.273914     Biso  1.000000 Au
   Au336      1.0     0.482609      0.273914      0.239130     Biso  1.000000 Au
   Au337      1.0     0.517391      0.239130      0.239130     Biso  1.000000 Au
   Au338      1.0     0.517391      0.273914      0.273914     Biso  1.000000 Au
   Au339      1.0     0.552174      0.239130      0.273914     Biso  1.000000 Au
   Au340      1.0     0.552174      0.273914      0.239130     Biso  1.000000 Au
   Au341      1.0     0.586956      0.239130      0.239130     Biso  1.000000 Au
   Au342      1.0     0.586956      0.273914      0.273914     Biso  1.000000 Au
   Au343      1.0     0.621738      0.239130      0.273914     Biso  1.000000 Au
   Au344      1.0     0.621738      0.273914      0.239130     Biso  1.000000 Au
   Au345      1.0     0.656521      0.239130      0.239130     Biso  1.000000 Au
   Au346      1.0     0.656521      0.273914      0.273914     Biso  1.000000 Au
   Au347      1.0     0.691305      0.239130      0.273914     Biso  1.000000 Au
   Au348      1.0     0.691305      0.273914      0.239130     Biso  1.000000 Au
   Au349      1.0     0.726086      0.273914      0.273914     Biso  1.000000 Au
   Au350      1.0     0.204349      0.308695      0.273914     Biso  1.000000 Au
   Au351      1.0     0.204349      0.343479      0.239130     Biso  1.000000 Au
   Au352      1.0     0.239130      0.308695      0.239130     Biso  1.000000 Au
   Au353      1.0     0.239130      0.343479      0.273914     Biso  1.000000 Au
   Au354      1.0     0.273914      0.308695      0.273914     Biso  1.000000 Au
   Au355      1.0     0.273914      0.343479      0.239130     Biso  1.000000 Au
   Au356      1.0     0.308695      0.308695      0.239130     Biso  1.000000 Au
   Au357      1.0     0.308695      0.343479      0.273914     Biso  1.000000 Au
   Au358      1.0     0.343479      0.308695      0.273914     Biso  1.000000 Au
   Au359      1.0     0.343479      0.343479      0.239130     Biso  1.000000 Au
   Au360      1.0     0.378261      0.308695      0.239130     Biso  1.000000 Au
   Au361      1.0     0.378261      0.343479      0.273914     Biso  1.000000 Au
   Au362      1.0     0.413044      0.308695      0.273914     Biso  1.000000 Au
   Au363      1.0     0.413044      0.343479      0.239130     Biso  1.000000 Au
   Au364      1.0     0.447826      0.308695      0.239130     Biso  1.000000 Au
   Au365      1.0     0.447826      0.343479      0.273914     Biso  1.000000 Au
   Au366      1.0     0.482609      0.308695      0.273914     Biso  1.000000 Au
   Au367      1.0     0.482609      0.343479      0.239130     Biso  1.000000 Au
   Au368      1.0     0.517391      0.308695      0.239130     Biso  1.000000 Au
   Au369      1.0     0.517391      0.343479      0.273914     Biso  1.000000 Au
   Au370      1.0     0.552174      0.308695      0.273914     Biso  1.000000 Au
   Au371      1.0     0.552174      0.343479      0.239130     Biso  1.000000 Au
   Au372      1.0     0.586956      0.308695      0.239130     Biso  1.000000 Au
   Au373      1.0     0.586956      0.343479      0.273914     Biso  1.000000 Au
   Au374      1.0     0.621738      0.308695      0.273914     Biso  1.000000 Au
   Au375      1.0     0.621738      0.343479      0.239130     Biso  1.000000 Au
   Au376      1.0     0.656521      0.308695      0.239130     Biso  1.000000 Au
   Au377      1.0     0.656521      0.343479      0.273914     Biso  1.000000 Au
   Au378      1.0     0.691305      0.308695      0.273914     Biso  1.000000 Au
   Au379      1.0     0.691305      0.343479      0.239130     Biso  1.000000 Au
   Au380      1.0     0.726086      0.308695      0.239130     Biso  1.000000 Au
   Au381      1.0     0.726086      0.343479      0.273914     Biso  1.000000 Au
   Au382      1.0     0.760870      0.308695      0.273914     Biso  1.000000 Au
   Au383      1.0     0.760870      0.343479      0.239130     Biso  1.000000 Au
   Au384      1.0     0.795651      0.343479      0.273914     Biso  1.000000 Au
   Au385      1.0     0.169565      0.413044      0.273914     Biso  1.000000 Au
   Au386      1.0     0.204349      0.378261      0.273914     Biso  1.000000 Au
   Au387      1.0     0.204349      0.413044      0.239130     Biso  1.000000 Au
   Au388      1.0     0.239130      0.378261      0.239130     Biso  1.000000 Au
   Au389      1.0     0.239130      0.413044      0.273914     Biso  1.000000 Au
   Au390      1.0     0.273914      0.378261      0.273914     Biso  1.000000 Au
   Au391      1.0     0.273914      0.413044      0.239130     Biso  1.000000 Au
   Au392      1.0     0.308695      0.378261      0.239130     Biso  1.000000 Au
   Au393      1.0     0.308695      0.413044      0.273914     Biso  1.000000 Au
   Au394      1.0     0.343479      0.378261      0.273914     Biso  1.000000 Au
   Au395      1.0     0.343479      0.413044      0.239130     Biso  1.000000 Au
   Au396      1.0     0.378261      0.378261      0.239130     Biso  1.000000 Au
   Au397      1.0     0.378261      0.413044      0.273914     Biso  1.000000 Au
   Au398      1.0     0.413044      0.378261      0.273914     Biso  1.000000 Au
   Au399      1.0     0.413044      0.413044      0.239130     Biso  1.000000 Au
   Au400      1.0     0.447826      0.378261      0.239130     Biso  1.000000 Au
   Au401      1.0     0.447826      0.413044      0.273914     Biso  1.000000 Au
   Au402      1.0     0.482609      0.378261      0.273914     Biso  1.000000 Au
   Au403      1.0     0.482609      0.413044      0.239130     Biso  1.000000 Au
   Au404      1.0     0.517391      0.378261      0.239130     Biso  1.000000 Au
   Au405      1.0     0.517391      0.413044      0.273914     Biso  1.000000 Au
   Au406      1.0     0.552174      0.378261      0.273914     Biso  1.000000 Au
   Au407      1.0     0.552174      0.413044      0.239130     Biso  1.000000 Au
   Au408      1.0     0.586956      0.378261      0.239130     Biso  1.000000 Au
   Au409      1.0     0.586956      0.413044      0.273914     Biso  1.000000 Au
   Au410      1.0     0.621738      0.378261      0.273914     Biso  1.000000 Au
   Au411      1.0     0.621738      0.413044      0.239130     Biso  1.000000 Au
   Au412      1.0     0.656521      0.378261      0.239130     Biso  1.000000 Au
   Au413      1.0     0.656521      0.413044      0.273914     Biso  1.000000 Au
   Au414      1.0     0.691305      0.378261      0.273914     Biso  1.000000 Au
   Au415      1.0     0.691305      0.413044      0.239130     Biso  1.000000 Au
   Au416      1.0     0.726086      0.378261      0.239130     Biso  1.000000 Au
   Au417      1.0     0.726086      0.413044      0.273914     Biso  1.000000 Au
   Au418      1.0     0.760870      0.378261      0.273914     Biso  1.000000 Au
   Au419      1.0     0.760870      0.413044      0.239130     Biso  1.000000 Au
   Au420      1.0     0.795651      0.378261      0.239130     Biso  1.000000 Au
   Au421      1.0     0.795651      0.413044      0.273914     Biso  1.000000 Au
   Au422      1.0     0.830435      0.378261      0.273914     Biso  1.000000 Au
   Au423      1.0     0.169565      0.447826      0.239130     Biso  1.000000 Au
   Au424      1.0     0.169565      0.482609      0.273914     Biso  1.000000 Au
   Au425      1.0     0.204349      0.447826      0.273914     Biso  1.000000 Au
   Au426      1.0     0.204349      0.482609      0.239130     Biso  1.000000 Au
   Au427      1.0     0.239130      0.447826      0.239130     Biso  1.000000 Au
   Au428      1.0     0.239130      0.482609      0.273914     Biso  1.000000 Au
   Au429      1.0     0.273914      0.447826      0.273914     Biso  1.000000 Au
   Au430      1.0     0.273914      0.482609      0.239130     Biso  1.000000 Au
   Au431      1.0     0.308695      0.447826      0.239130     Biso  1.000000 Au
   Au432      1.0     0.308695      0.482609      0.273914     Biso  1.000000 Au
   Au433      1.0     0.343479      0.447826      0.273914     Biso  1.000000 Au
   Au434      1.0     0.343479      0.482609      0.239130     Biso  1.000000 Au
   Au435      1.0     0.378261      0.447826      0.239130     Biso  1.000000 Au
   Au436      1.0     0.378261      0.482609      0.273914     Biso  1.000000 Au
   Au437      1.0     0.413044      0.447826      0.273914     Biso  1.000000 Au
   Au438      1.0     0.413044      0.482609      0.239130     Biso  1.000000 Au
   Au439      1.0     0.447826      0.447826      0.239130     Biso  1.000000 Au
   Au440      1.0     0.447826      0.482609      0.273914     Biso  1.000000 Au
   Au441      1.0     0.482609      0.447826      0.273914     Biso  1.000000 Au
   Au442      1.0     0.482609      0.482609      0.239130     Biso  1.000000 Au
   Au443      1.0     0.517391      0.447826      0.239130     Biso  1.000000 Au
   Au444      1.0     0.517391      0.482609      0.273914     Biso  1.000000 Au
   Au445      1.0     0.552174      0.447826      0.273914     Biso  1.000000 Au
   Au446      1.0     0.552174      0.482609      0.239130     Biso  1.000000 Au
   Au447      1.0     0.586956      0.447826      0.239130     Biso  1.000000 Au
   Au448      1.0     0.586956      0.482609      0.273914     Biso  1.000000 Au
   Au449      1.0     0.621738      0.447826      0.273914     Biso  1.000000 Au
   Au450      1.0     0.621738      0.482609      0.239130     Biso  1.000000 Au
   Au451      1.0     0.656521      0.447826      0.239130     Biso  1.000000 Au
   Au452      1.0     0.656521      0.482609      0.273914     Biso  1.000000 Au
   Au453      1.0     0.691305      0.447826      0.273914     Biso  1.000000 Au
   Au454      1.0     0.691305      0.482609      0.239130     Biso  1.000000 Au
   Au455      1.0     0.726086      0.447826      0.239130     Biso  1.000000 Au
   Au456      1.0     0.726086      0.482609      0.273914     Biso  1.000000 Au
   Au457      1.0     0.760870      0.447826      0.273914     Biso  1.000000 Au
   Au458      1.0     0.760870      0.482609      0.239130     Biso  1.000000 Au
   Au459      1.0     0.795651      0.447826      0.239130     Biso  1.000000 Au
   Au460      1.0     0.795651      0.482609      0.273914     Biso  1.000000 Au
   Au461      1.0     0.830435      0.447826      0.273914     Biso  1.000000 Au
   Au462      1.0     0.830435      0.482609      0.239130     Biso  1.000000 Au
   Au463      1.0     0.169565      0.517391      0.239130     Biso  1.000000 Au
   Au464      1.0     0.169565      0.552174      0.273914     Biso  1.000000 Au
   Au465      1.0     0.204349      0.517391      0.273914     Biso  1.000000 Au
   Au466      1.0     0.204349      0.552174      0.239130     Biso  1.000000 Au
   Au467      1.0     0.239130      0.517391      0.239130     Biso  1.000000 Au
   Au468      1.0     0.239130      0.552174      0.273914     Biso  1.000000 Au
   Au469      1.0     0.273914      0.517391      0.273914     Biso  1.000000 Au
   Au470      1.0     0.273914      0.552174      0.239130     Biso  1.000000 Au
   Au471      1.0     0.308695      0.517391      0.239130     Biso  1.000000 Au
   Au472      1.0     0.308695      0.552174      0.273914     Biso  1.000000 Au
   Au473      1.0     0.343479      0.517391      0.273914     Biso  1.000000 Au
   Au474      1.0     0.343479      0.552174      0.239130     Biso  1.000000 Au
   Au475      1.0     0.378261      0.517391      0.239130     Biso  1.000000 Au
   Au476      1.0     0.378261      0.552174      0.273914     Biso  1.000000 Au
   Au477      1.0     0.413044      0.517391      0.273914     Biso  1.000000 Au
   Au478      1.0     0.413044      0.552174      0.239130     Biso  1.000000 Au
   Au479      1.0     0.447826      0.517391      0.239130     Biso  1.000000 Au
   Au480      1.0     0.447826      0.552174      0.273914     Biso  1.000000 Au
   Au481      1.0     0.482609      0.517391      0.273914     Biso  1.000000 Au
   Au482      1.0     0.482609      0.552174      0.239130     Biso  1.000000 Au
   Au483      1.0     0.517391      0.517391      0.239130     Biso  1.000000 Au
   Au484      1.0     0.517391      0.552174      0.273914     Biso  1.000000 Au
   Au485      1.0     0.552174      0.517391      0.273914     Biso  1.000000 Au
   Au486      1.0     0.552174      0.552174      0.239130     Biso  1.000000 Au
   Au487      1.0     0.586956      0.517391      0.239130     Biso  1.000000 Au
   Au488      1.0     0.586956      0.552174      0.273914     Biso  1.000000 Au
   Au489      1.0     0.621738      0.517391      0.273914     Biso  1.000000 Au
   Au490      1.0     0.621738      0.552174      0.239130     Biso  1.000000 Au
   Au491      1.0     0.656521      0.517391      0.239130     Biso  1.000000 Au
   Au492      1.0     0.656521      0.552174      0.273914     Biso  1.000000 Au
   Au493      1.0     0.691305      0.517391      0.273914     Biso  1.000000 Au
   Au494      1.0     0.691305      0.552174      0.239130     Biso  1.000000 Au
   Au495      1.0     0.726086      0.517391      0.239130     Biso  1.000000 Au
   Au496      1.0     0.726086      0.552174      0.273914     Biso  1.000000 Au
   Au497      1.0     0.760870      0.517391      0.273914     Biso  1.000000 Au
   Au498      1.0     0.760870      0.552174      0.239130     Biso  1.000000 Au
   Au499      1.0     0.795651      0.517391      0.239130     Biso  1.000000 Au
   Au500      1.0     0.795651      0.552174      0.273914     Biso  1.000000 Au
   Au501      1.0     0.830435      0.517391      0.273914     Biso  1.000000 Au
   Au502      1.0     0.830435      0.552174      0.239130     Biso  1.000000 Au
   Au503      1.0     0.169565      0.621738      0.273914     Biso  1.000000 Au
   Au504      1.0     0.204349      0.586956      0.273914     Biso  1.000000 Au
   Au505      1.0     0.204349      0.621738      0.239130     Biso  1.000000 Au
   Au506      1.0     0.239130      0.586956      0.239130     Biso  1.000000 Au
   Au507      1.0     0.239130      0.621738      0.273914     Biso  1.000000 Au
   Au508      1.0     0.273914      0.586956      0.273914     Biso  1.000000 Au
   Au509      1.0     0.273914      0.621738      0.239130     Biso  1.000000 Au
   Au510      1.0     0.308695      0.586956      0.239130     Biso  1.000000 Au
   Au511      1.0     0.308695      0.621738      0.273914     Biso  1.000000 Au
   Au512      1.0     0.343479      0.586956      0.273914     Biso  1.000000 Au
   Au513      1.0     0.343479      0.621738      0.239130     Biso  1.000000 Au
   Au514      1.0     0.378261      0.586956      0.239130     Biso  1.000000 Au
   Au515      1.0     0.378261      0.621738      0.273914     Biso  1.000000 Au
   Au516      1.0     0.413044      0.586956      0.273914     Biso  1.000000 Au
   Au517      1.0     0.413044      0.621738      0.239130     Biso  1.000000 Au
   Au518      1.0     0.447826      0.586956      0.239130     Biso  1.000000 Au
   Au519      1.0     0.447826      0.621738      0.273914     Biso  1.000000 Au
   Au520      1.0     0.482609      0.586956      0.273914     Biso  1.000000 Au
   Au521      1.0     0.482609      0.621738      0.239130     Biso  1.000000 Au
   Au522      1.0     0.517391      0.586956      0.239130     Biso  1.000000 Au
   Au523      1.0     0.517391      0.621738      0.273914     Biso  1.000000 Au
   Au524      1.0     0.552174      0.586956      0.273914     Biso  1.000000 Au
   Au525      1.0     0.552174      0.621738      0.239130     Biso  1.000000 Au
   Au526      1.0     0.586956      0.586956      0.239130     Biso  1.000000 Au
   Au527      1.0     0.586956      0.621738      0.273914     Biso  1.000000 Au
   Au528      1.0     0.621738      0.586956      0.273914     Biso  1.000000 Au
   Au529      1.0     0.621738      0.621738      0.239130     Biso  1.000000 Au
   Au530      1.0     0.656521      0.586956      0.239130     Biso  1.000000 Au
   Au531      1.0     0.656521      0.621738      0.273914     Biso  1.000000 Au
   Au532      1.0     0.691305      0.586956      0.273914     Biso  1.000000 Au
   Au533      1.0     0.691305      0.621738      0.239130     Biso  1.000000 Au
   Au534      1.0     0.726086      0.586956      0.239130     Biso  1.000000 Au
   Au535      1.0     0.726086      0.621738      0.273914     Biso  1.000000 Au
   Au536      1.0     0.760870      0.586956      0.273914     Biso  1.000000 Au
   Au537      1.0     0.760870      0.621738      0.239130     Biso  1.000000 Au
   Au538      1.0     0.795651      0.586956      0.239130     Biso  1.000000 Au
   Au539      1.0     0.795651      0.621738      0.273914     Biso  1.000000 Au
   Au540      1.0     0.830435      0.586956      0.273914     Biso  1.000000 Au
   Au541      1.0     0.204349      0.656521      0.273914     Biso  1.000000 Au
   Au542      1.0     0.239130      0.656521      0.239130     Biso  1.000000 Au
   Au543      1.0     0.239130      0.691305      0.273914     Biso  1.000000 Au
   Au544      1.0     0.273914      0.656521      0.273914     Biso  1.000000 Au
   Au545      1.0     0.273914      0.691305      0.239130     Biso  1.000000 Au
   Au546      1.0     0.308695      0.656521      0.239130     Biso  1.000000 Au
   Au547      1.0     0.308695      0.691305      0.273914     Biso  1.000000 Au
   Au548      1.0     0.343479      0.656521      0.273914     Biso  1.000000 Au
   Au549      1.0     0.343479      0.691305      0.239130     Biso  1.000000 Au
   Au550      1.0     0.378261      0.656521      0.239130     Biso  1.000000 Au
   Au551      1.0     0.378261      0.691305      0.273914     Biso  1.000000 Au
   Au552      1.0     0.413044      0.656521      0.273914     Biso  1.000000 Au
   Au553      1.0     0.413044      0.691305      0.239130     Biso  1.000000 Au
   Au554      1.0     0.447826      0.656521      0.239130     Biso  1.000000 Au
   Au555      1.0     0.447826      0.691305      0.273914     Biso  1.000000 Au
   Au556      1.0     0.482609      0.656521      0.273914     Biso  1.000000 Au
   Au557      1.0     0.482609      0.691305      0.239130     Biso  1.000000 Au
   Au558      1.0     0.517391      0.656521      0.239130     Biso  1.000000 Au
   Au559      1.0     0.517391      0.691305      0.273914     Biso  1.000000 Au
   Au560      1.0     0.552174      0.656521      0.273914     Biso  1.000000 Au
   Au561      1.0     0.552174      0.691305      0.239130     Biso  1.000000 Au
   Au562      1.0     0.586956      0.656521      0.239130     Biso  1.000000 Au
   Au563      1.0     0.586956      0.691305      0.273914     Biso  1.000000 Au
   Au564      1.0     0.621738      0.656521      0.273914     Biso  1.000000 Au
   Au565      1.0     0.621738      0.691305      0.239130     Biso  1.000000 Au
   Au566      1.0     0.656521      0.656521      0.239130     Biso  1.000000 Au
   Au567      1.0     0.656521      0.691305      0.273914     Biso  1.000000 Au
   Au568      1.0     0.691305      0.656521      0.273914     Biso  1.000000 Au
   Au569      1.0     0.691305      0.691305      0.239130     Biso  1.000000 Au
   Au570      1.0     0.726086      0.656521      0.239130     Biso  1.000000 Au
   Au571      1.0     0.726086      0.691305      0.273914     Biso  1.000000 Au
   Au572      1.0     0.760870      0.656521      0.273914     Biso  1.000000 Au
   Au573      1.0     0.760870      0.691305      0.239130     Biso  1.000000 Au
   Au574      1.0     0.795651      0.656521      0.239130     Biso  1.000000 Au
   Au575      1.0     0.795651      0.691305      0.273914     Biso  1.000000 Au
   Au576      1.0     0.273914      0.726086      0.273914     Biso  1.000000 Au
   Au577      1.0     0.308695      0.726086      0.239130     Biso  1.000000 Au
   Au578      1.0     0.308695      0.760870      0.273914     Biso  1.000000 Au
   Au579      1.0     0.343479      0.726086      0.273914     Biso  1.000000 Au
   Au580      1.0     0.343479      0.760870      0.239130     Biso  1.000000 Au
   Au581      1.0     0.378261      0.726086      0.239130     Biso  1.000000 Au
   Au582      1.0     0.378261      0.760870      0.273914     Biso  1.000000 Au
   Au583      1.0     0.413044      0.726086      0.273914     Biso  1.000000 Au
   Au584      1.0     0.413044      0.760870      0.239130     Biso  1.000000 Au
   Au585      1.0     0.447826      0.726086      0.239130     Biso  1.000000 Au
   Au586      1.0     0.447826      0.760870      0.273914     Biso  1.000000 Au
   Au587      1.0     0.482609      0.726086      0.273914     Biso  1.000000 Au
   Au588      1.0     0.482609      0.760870      0.239130     Biso  1.000000 Au
   Au589      1.0     0.517391      0.726086      0.239130     Biso  1.000000 Au
   Au590      1.0     0.517391      0.760870      0.273914     Biso  1.000000 Au
   Au591      1.0     0.552174      0.726086      0.273914     Biso  1.000000 Au
   Au592      1.0     0.552174      0.760870      0.239130     Biso  1.000000 Au
   Au593      1.0     0.586956      0.726086      0.239130     Biso  1.000000 Au
   Au594      1.0     0.586956      0.760870      0.273914     Biso  1.000000 Au
   Au595      1.0     0.621738      0.726086      0.273914     Biso  1.000000 Au
   Au596      1.0     0.621738      0.760870      0.239130     Biso  1.000000 Au
   Au597      1.0     0.656521      0.726086      0.239130     Biso  1.000000 Au
   Au598      1.0     0.656521      0.760870      0.273914     Biso  1.000000 Au
   Au599      1.0     0.691305      0.726086      0.273914     Biso  1.000000 Au
   Au600      1.0     0.691305      0.760870      0.239130     Biso  1.000000 Au
   Au601      1.0     0.726086      0.726086      0.239130     Biso  1.000000 Au
   Au602      1.0     0.726086      0.760870      0.273914     Biso  1.000000 Au
   Au603      1.0     0.760870      0.726086      0.273914     Biso  1.000000 Au
   Au604      1.0     0.343479      0.795651      0.273914     Biso  1.000000 Au
   Au605      1.0     0.378261      0.795651      0.239130     Biso  1.000000 Au
   Au606      1.0     0.378261      0.830435      0.273914     Biso  1.000000 Au
   Au607      1.0     0.413044      0.795651      0.273914     Biso  1.000000 Au
   Au608      1.0     0.447826      0.795651      0.239130     Biso  1.000000 Au
   Au609      1.0     0.447826      0.830435      0.273914     Biso  1.000000 Au
   Au610      1.0     0.482609      0.795651      0.273914     Biso  1.000000 Au
   Au611      1.0     0.482609      0.830435      0.239130     Biso  1.000000 Au
   Au612      1.0     0.517391      0.795651      0.239130     Biso  1.000000 Au
   Au613      1.0     0.517391      0.830435      0.273914     Biso  1.000000 Au
   Au614      1.0     0.552174      0.795651      0.273914     Biso  1.000000 Au
   Au615      1.0     0.552174      0.830435      0.239130     Biso  1.000000 Au
   Au616      1.0     0.586956      0.795651      0.239130     Biso  1.000000 Au
   Au617      1.0     0.586956      0.830435      0.273914     Biso  1.000000 Au
   Au618      1.0     0.621738      0.795651      0.273914     Biso  1.000000 Au
   Au619      1.0     0.656521      0.795651      0.239130     Biso  1.000000 Au
   Au620      1.0     0.691305      0.795651      0.273914     Biso  1.000000 Au
   Au621      1.0     0.378261      0.134783      0.343479     Biso  1.000000 Au
   Au622      1.0     0.413044      0.134783      0.308695     Biso  1.000000 Au
   Au623      1.0     0.447826      0.134783      0.343479     Biso  1.000000 Au
   Au624      1.0     0.482609      0.134783      0.308695     Biso  1.000000 Au
   Au625      1.0     0.517391      0.134783      0.343479     Biso  1.000000 Au
   Au626      1.0     0.552174      0.134783      0.308695     Biso  1.000000 Au
   Au627      1.0     0.586956      0.134783      0.343479     Biso  1.000000 Au
   Au628      1.0     0.239130      0.204349      0.343479     Biso  1.000000 Au
   Au629      1.0     0.273914      0.204349      0.308695     Biso  1.000000 Au
   Au630      1.0     0.308695      0.204349      0.343479     Biso  1.000000 Au
   Au631      1.0     0.343479      0.169565      0.343479     Biso  1.000000 Au
   Au632      1.0     0.343479      0.204349      0.308695     Biso  1.000000 Au
   Au633      1.0     0.378261      0.169565      0.308695     Biso  1.000000 Au
   Au634      1.0     0.378261      0.204349      0.343479     Biso  1.000000 Au
   Au635      1.0     0.413044      0.169565      0.343479     Biso  1.000000 Au
   Au636      1.0     0.413044      0.204349      0.308695     Biso  1.000000 Au
   Au637      1.0     0.447826      0.169565      0.308695     Biso  1.000000 Au
   Au638      1.0     0.447826      0.204349      0.343479     Biso  1.000000 Au
   Au639      1.0     0.482609      0.169565      0.343479     Biso  1.000000 Au
   Au640      1.0     0.482609      0.204349      0.308695     Biso  1.000000 Au
   Au641      1.0     0.517391      0.169565      0.308695     Biso  1.000000 Au
   Au642      1.0     0.517391      0.204349      0.343479     Biso  1.000000 Au
   Au643      1.0     0.552174      0.169565      0.343479     Biso  1.000000 Au
   Au644      1.0     0.552174      0.204349      0.308695     Biso  1.000000 Au
   Au645      1.0     0.586956      0.169565      0.308695     Biso  1.000000 Au
   Au646      1.0     0.586956      0.204349      0.343479     Biso  1.000000 Au
   Au647      1.0     0.621738      0.169565      0.343479     Biso  1.000000 Au
   Au648      1.0     0.621738      0.204349      0.308695     Biso  1.000000 Au
   Au649      1.0     0.656521      0.169565      0.308695     Biso  1.000000 Au
   Au650      1.0     0.656521      0.204349      0.343479     Biso  1.000000 Au
   Au651      1.0     0.691305      0.169565      0.343479     Biso  1.000000 Au
   Au652      1.0     0.691305      0.204349      0.308695     Biso  1.000000 Au
   Au653      1.0     0.726086      0.204349      0.343479     Biso  1.000000 Au
   Au654      1.0     0.204349      0.239130      0.343479     Biso  1.000000 Au
   Au655      1.0     0.204349      0.273914      0.308695     Biso  1.000000 Au
   Au656      1.0     0.239130      0.239130      0.308695     Biso  1.000000 Au
   Au657      1.0     0.239130      0.273914      0.343479     Biso  1.000000 Au
   Au658      1.0     0.273914      0.239130      0.343479     Biso  1.000000 Au
   Au659      1.0     0.273914      0.273914      0.308695     Biso  1.000000 Au
   Au660      1.0     0.308695      0.239130      0.308695     Biso  1.000000 Au
   Au661      1.0     0.308695      0.273914      0.343479     Biso  1.000000 Au
   Au662      1.0     0.343479      0.239130      0.343479     Biso  1.000000 Au
   Au663      1.0     0.343479      0.273914      0.308695     Biso  1.000000 Au
   Au664      1.0     0.378261      0.239130      0.308695     Biso  1.000000 Au
   Au665      1.0     0.378261      0.273914      0.343479     Biso  1.000000 Au
   Au666      1.0     0.413044      0.239130      0.343479     Biso  1.000000 Au
   Au667      1.0     0.413044      0.273914      0.308695     Biso  1.000000 Au
   Au668      1.0     0.447826      0.239130      0.308695     Biso  1.000000 Au
   Au669      1.0     0.447826      0.273914      0.343479     Biso  1.000000 Au
   Au670      1.0     0.482609      0.239130      0.343479     Biso  1.000000 Au
   Au671      1.0     0.482609      0.273914      0.308695     Biso  1.000000 Au
   Au672      1.0     0.517391      0.239130      0.308695     Biso  1.000000 Au
   Au673      1.0     0.517391      0.273914      0.343479     Biso  1.000000 Au
   Au674      1.0     0.552174      0.239130      0.343479     Biso  1.000000 Au
   Au675      1.0     0.552174      0.273914      0.308695     Biso  1.000000 Au
   Au676      1.0     0.586956      0.239130      0.308695     Biso  1.000000 Au
   Au677      1.0     0.586956      0.273914      0.343479     Biso  1.000000 Au
   Au678      1.0     0.621738      0.239130      0.343479     Biso  1.000000 Au
   Au679      1.0     0.621738      0.273914      0.308695     Biso  1.000000 Au
   Au680      1.0     0.656521      0.239130      0.308695     Biso  1.000000 Au
   Au681      1.0     0.656521      0.273914      0.343479     Biso  1.000000 Au
   Au682      1.0     0.691305      0.239130      0.343479     Biso  1.000000 Au
   Au683      1.0     0.691305      0.273914      0.308695     Biso  1.000000 Au
   Au684      1.0     0.726086      0.239130      0.308695     Biso  1.000000 Au
   Au685      1.0     0.726086      0.273914      0.343479     Biso  1.000000 Au
   Au686      1.0     0.760870      0.239130      0.343479     Biso  1.000000 Au
   Au687      1.0     0.760870      0.273914      0.308695     Biso  1.000000 Au
   Au688      1.0     0.795651      0.273914      0.343479     Biso  1.000000 Au
   Au689      1.0     0.169565      0.343479      0.343479     Biso  1.000000 Au
   Au690      1.0     0.204349      0.308695      0.343479     Biso  1.000000 Au
   Au691      1.0     0.204349      0.343479      0.308695     Biso  1.000000 Au
   Au692      1.0     0.239130      0.308695      0.308695     Biso  1.000000 Au
   Au693      1.0     0.239130      0.343479      0.343479     Biso  1.000000 Au
   Au694      1.0     0.273914      0.308695      0.343479     Biso  1.000000 Au
   Au695      1.0     0.273914      0.343479      0.308695     Biso  1.000000 Au
   Au696      1.0     0.308695      0.308695      0.308695     Biso  1.000000 Au
   Au697      1.0     0.308695      0.343479      0.343479     Biso  1.000000 Au
   Au698      1.0     0.343479      0.308695      0.343479     Biso  1.000000 Au
   Au699      1.0     0.343479      0.343479      0.308695     Biso  1.000000 Au
   Au700      1.0     0.378261      0.308695      0.308695     Biso  1.000000 Au
   Au701      1.0     0.378261      0.343479      0.343479     Biso  1.000000 Au
   Au702      1.0     0.413044      0.308695      0.343479     Biso  1.000000 Au
   Au703      1.0     0.413044      0.343479      0.308695     Biso  1.000000 Au
   Au704      1.0     0.447826      0.308695      0.308695     Biso  1.000000 Au
   Au705      1.0     0.447826      0.343479      0.343479     Biso  1.000000 Au
   Au706      1.0     0.482609      0.308695      0.343479     Biso  1.000000 Au
   Au707      1.0     0.482609      0.343479      0.308695     Biso  1.000000 Au
   Au708      1.0     0.517391      0.308695      0.308695     Biso  1.000000 Au
   Au709      1.0     0.517391      0.343479      0.343479     Biso  1.000000 Au
   Au710      1.0     0.552174      0.308695      0.343479     Biso  1.000000 Au
   Au711      1.0     0.552174      0.343479      0.308695     Biso  1.000000 Au
   Au712      1.0     0.586956      0.308695      0.308695     Biso  1.000000 Au
   Au713      1.0     0.586956      0.343479      0.343479     Biso  1.000000 Au
   Au714      1.0     0.621738      0.308695      0.343479     Biso  1.000000 Au
   Au715      1.0     0.621738      0.343479      0.308695     Biso  1.000000 Au
   Au716      1.0     0.656521      0.308695      0.308695     Biso  1.000000 Au
   Au717      1.0     0.656521      0.343479      0.343479     Biso  1.000000 Au
   Au718      1.0     0.691305      0.308695      0.343479     Biso  1.000000 Au
   Au719      1.0     0.691305      0.343479      0.308695     Biso  1.000000 Au
   Au720      1.0     0.726086      0.308695      0.308695     Biso  1.000000 Au
   Au721      1.0     0.726086      0.343479      0.343479     Biso  1.000000 Au
   Au722      1.0     0.760870      0.308695      0.343479     Biso  1.000000 Au
   Au723      1.0     0.760870      0.343479      0.308695     Biso  1.000000 Au
   Au724      1.0     0.795651      0.308695      0.308695     Biso  1.000000 Au
   Au725      1.0     0.795651      0.343479      0.343479     Biso  1.000000 Au
   Au726      1.0     0.830435      0.308695      0.343479     Biso  1.000000 Au
   Au727      1.0     0.830435      0.343479      0.308695     Biso  1.000000 Au
   Au728      1.0     0.134783      0.378261      0.343479     Biso  1.000000 Au
   Au729      1.0     0.134783      0.413044      0.308695     Biso  1.000000 Au
   Au730      1.0     0.169565      0.378261      0.308695     Biso  1.000000 Au
   Au731      1.0     0.169565      0.413044      0.343479     Biso  1.000000 Au
   Au732      1.0     0.204349      0.378261      0.343479     Biso  1.000000 Au
   Au733      1.0     0.204349      0.413044      0.308695     Biso  1.000000 Au
   Au734      1.0     0.239130      0.378261      0.308695     Biso  1.000000 Au
   Au735      1.0     0.239130      0.413044      0.343479     Biso  1.000000 Au
   Au736      1.0     0.273914      0.378261      0.343479     Biso  1.000000 Au
   Au737      1.0     0.273914      0.413044      0.308695     Biso  1.000000 Au
   Au738      1.0     0.308695      0.378261      0.308695     Biso  1.000000 Au
   Au739      1.0     0.308695      0.413044      0.343479     Biso  1.000000 Au
   Au740      1.0     0.343479      0.378261      0.343479     Biso  1.000000 Au
   Au741      1.0     0.343479      0.413044      0.308695     Biso  1.000000 Au
   Au742      1.0     0.378261      0.378261      0.308695     Biso  1.000000 Au
   Au743      1.0     0.378261      0.413044      0.343479     Biso  1.000000 Au
   Au744      1.0     0.413044      0.378261      0.343479     Biso  1.000000 Au
   Au745      1.0     0.413044      0.413044      0.308695     Biso  1.000000 Au
   Au746      1.0     0.447826      0.378261      0.308695     Biso  1.000000 Au
   Au747      1.0     0.447826      0.413044      0.343479     Biso  1.000000 Au
   Au748      1.0     0.482609      0.378261      0.343479     Biso  1.000000 Au
   Au749      1.0     0.482609      0.413044      0.308695     Biso  1.000000 Au
   Au750      1.0     0.517391      0.378261      0.308695     Biso  1.000000 Au
   Au751      1.0     0.517391      0.413044      0.343479     Biso  1.000000 Au
   Au752      1.0     0.552174      0.378261      0.343479     Biso  1.000000 Au
   Au753      1.0     0.552174      0.413044      0.308695     Biso  1.000000 Au
   Au754      1.0     0.586956      0.378261      0.308695     Biso  1.000000 Au
   Au755      1.0     0.586956      0.413044      0.343479     Biso  1.000000 Au
   Au756      1.0     0.621738      0.378261      0.343479     Biso  1.000000 Au
   Au757      1.0     0.621738      0.413044      0.308695     Biso  1.000000 Au
   Au758      1.0     0.656521      0.378261      0.308695     Biso  1.000000 Au
   Au759      1.0     0.656521      0.413044      0.343479     Biso  1.000000 Au
   Au760      1.0     0.691305      0.378261      0.343479     Biso  1.000000 Au
   Au761      1.0     0.691305      0.413044      0.308695     Biso  1.000000 Au
   Au762      1.0     0.726086      0.378261      0.308695     Biso  1.000000 Au
   Au763      1.0     0.726086      0.413044      0.343479     Biso  1.000000 Au
   Au764      1.0     0.760870      0.378261      0.343479     Biso  1.000000 Au
   Au765      1.0     0.760870      0.413044      0.308695     Biso  1.000000 Au
   Au766      1.0     0.795651      0.378261      0.308695     Biso  1.000000 Au
   Au767      1.0     0.795651      0.413044      0.343479     Biso  1.000000 Au
   Au768      1.0     0.830435      0.378261      0.343479     Biso  1.000000 Au
   Au769      1.0     0.830435      0.413044      0.308695     Biso  1.000000 Au
   Au770      1.0     0.865217      0.413044      0.343479     Biso  1.000000 Au
   Au771      1.0     0.134783      0.447826      0.343479     Biso  1.000000 Au
   Au772      1.0     0.134783      0.482609      0.308695     Biso  1.000000 Au
   Au773      1.0     0.169565      0.447826      0.308695     Biso  1.000000 Au
   Au774      1.0     0.169565      0.482609      0.343479     Biso  1.000000 Au
   Au775      1.0     0.204349      0.447826      0.343479     Biso  1.000000 Au
   Au776      1.0     0.204349      0.482609      0.308695     Biso  1.000000 Au
   Au777      1.0     0.239130      0.447826      0.308695     Biso  1.000000 Au
   Au778      1.0     0.239130      0.482609      0.343479     Biso  1.000000 Au
   Au779      1.0     0.273914      0.447826      0.343479     Biso  1.000000 Au
   Au780      1.0     0.273914      0.482609      0.308695     Biso  1.000000 Au
   Au781      1.0     0.308695      0.447826      0.308695     Biso  1.000000 Au
   Au782      1.0     0.308695      0.482609      0.343479     Biso  1.000000 Au
   Au783      1.0     0.343479      0.447826      0.343479     Biso  1.000000 Au
   Au784      1.0     0.343479      0.482609      0.308695     Biso  1.000000 Au
   Au785      1.0     0.378261      0.447826      0.308695     Biso  1.000000 Au
   Au786      1.0     0.378261      0.482609      0.343479     Biso  1.000000 Au
   Au787      1.0     0.413044      0.447826      0.343479     Biso  1.000000 Au
   Au788      1.0     0.413044      0.482609      0.308695     Biso  1.000000 Au
   Au789      1.0     0.447826      0.447826      0.308695     Biso  1.000000 Au
   Au790      1.0     0.447826      0.482609      0.343479     Biso  1.000000 Au
   Au791      1.0     0.482609      0.447826      0.343479     Biso  1.000000 Au
   Au792      1.0     0.482609      0.482609      0.308695     Biso  1.000000 Au
   Au793      1.0     0.517391      0.447826      0.308695     Biso  1.000000 Au
   Au794      1.0     0.517391      0.482609      0.343479     Biso  1.000000 Au
   Au795      1.0     0.552174      0.447826      0.343479     Biso  1.000000 Au
   Au796      1.0     0.552174      0.482609      0.308695     Biso  1.000000 Au
   Au797      1.0     0.586956      0.447826      0.308695     Biso  1.000000 Au
   Au798      1.0     0.586956      0.482609      0.343479     Biso  1.000000 Au
   Au799      1.0     0.621738      0.447826      0.343479     Biso  1.000000 Au
   Au800      1.0     0.621738      0.482609      0.308695     Biso  1.000000 Au
   Au801      1.0     0.656521      0.447826      0.308695     Biso  1.000000 Au
   Au802      1.0     0.656521      0.482609      0.343479     Biso  1.000000 Au
   Au803      1.0     0.691305      0.447826      0.343479     Biso  1.000000 Au
   Au804      1.0     0.691305      0.482609      0.308695     Biso  1.000000 Au
   Au805      1.0     0.726086      0.447826      0.308695     Biso  1.000000 Au
   Au806      1.0     0.726086      0.482609      0.343479     Biso  1.000000 Au
   Au807      1.0     0.760870      0.447826      0.343479     Biso  1.000000 Au
   Au808      1.0     0.760870      0.482609      0.308695     Biso  1.000000 Au
   Au809      1.0     0.795651      0.447826      0.308695     Biso  1.000000 Au
   Au810      1.0     0.795651      0.482609      0.343479     Biso  1.000000 Au
   Au811      1.0     0.830435      0.447826      0.343479     Biso  1.000000 Au
   Au812      1.0     0.830435      0.482609      0.308695     Biso  1.000000 Au
   Au813      1.0     0.865217      0.447826      0.308695     Biso  1.000000 Au
   Au814      1.0     0.865217      0.482609      0.343479     Biso  1.000000 Au
   Au815      1.0     0.134783      0.517391      0.343479     Biso  1.000000 Au
   Au816      1.0     0.134783      0.552174      0.308695     Biso  1.000000 Au
   Au817      1.0     0.169565      0.517391      0.308695     Biso  1.000000 Au
   Au818      1.0     0.169565      0.552174      0.343479     Biso  1.000000 Au
   Au819      1.0     0.204349      0.517391      0.343479     Biso  1.000000 Au
   Au820      1.0     0.204349      0.552174      0.308695     Biso  1.000000 Au
   Au821      1.0     0.239130      0.517391      0.308695     Biso  1.000000 Au
   Au822      1.0     0.239130      0.552174      0.343479     Biso  1.000000 Au
   Au823      1.0     0.273914      0.517391      0.343479     Biso  1.000000 Au
   Au824      1.0     0.273914      0.552174      0.308695     Biso  1.000000 Au
   Au825      1.0     0.308695      0.517391      0.308695     Biso  1.000000 Au
   Au826      1.0     0.308695      0.552174      0.343479     Biso  1.000000 Au
   Au827      1.0     0.343479      0.517391      0.343479     Biso  1.000000 Au
   Au828      1.0     0.343479      0.552174      0.308695     Biso  1.000000 Au
   Au829      1.0     0.378261      0.517391      0.308695     Biso  1.000000 Au
   Au830      1.0     0.378261      0.552174      0.343479     Biso  1.000000 Au
   Au831      1.0     0.413044      0.517391      0.343479     Biso  1.000000 Au
   Au832      1.0     0.413044      0.552174      0.308695     Biso  1.000000 Au
   Au833      1.0     0.447826      0.517391      0.308695     Biso  1.000000 Au
   Au834      1.0     0.447826      0.552174      0.343479     Biso  1.000000 Au
   Au835      1.0     0.482609      0.517391      0.343479     Biso  1.000000 Au
   Au836      1.0     0.482609      0.552174      0.308695     Biso  1.000000 Au
   Au837      1.0     0.517391      0.517391      0.308695     Biso  1.000000 Au
   Au838      1.0     0.517391      0.552174      0.343479     Biso  1.000000 Au
   Au839      1.0     0.552174      0.517391      0.343479     Biso  1.000000 Au
   Au840      1.0     0.552174      0.552174      0.308695     Biso  1.000000 Au
   Au841      1.0     0.586956      0.517391      0.308695     Biso  1.000000 Au
   Au842      1.0     0.586956      0.552174      0.343479     Biso  1.000000 Au
   Au843      1.0     0.621738      0.517391      0.343479     Biso  1.000000 Au
   Au844      1.0     0.621738      0.552174      0.308695     Biso  1.000000 Au
   Au845      1.0     0.656521      0.517391      0.308695     Biso  1.000000 Au
   Au846      1.0     0.656521      0.552174      0.343479     Biso  1.000000 Au
   Au847      1.0     0.691305      0.517391      0.343479     Biso  1.000000 Au
   Au848      1.0     0.691305      0.552174      0.308695     Biso  1.000000 Au
   Au849      1.0     0.726086      0.517391      0.308695     Biso  1.000000 Au
   Au850      1.0     0.726086      0.552174      0.343479     Biso  1.000000 Au
   Au851      1.0     0.760870      0.517391      0.343479     Biso  1.000000 Au
   Au852      1.0     0.760870      0.552174      0.308695     Biso  1.000000 Au
   Au853      1.0     0.795651      0.517391      0.308695     Biso  1.000000 Au
   Au854      1.0     0.795651      0.552174      0.343479     Biso  1.000000 Au
   Au855      1.0     0.830435      0.517391      0.343479     Biso  1.000000 Au
   Au856      1.0     0.830435      0.552174      0.308695     Biso  1.000000 Au
   Au857      1.0     0.865217      0.517391      0.308695     Biso  1.000000 Au
   Au858      1.0     0.865217      0.552174      0.343479     Biso  1.000000 Au
   Au859      1.0     0.134783      0.586956      0.343479     Biso  1.000000 Au
   Au860      1.0     0.169565      0.586956      0.308695     Biso  1.000000 Au
   Au861      1.0     0.169565      0.621738      0.343479     Biso  1.000000 Au
   Au862      1.0     0.204349      0.586956      0.343479     Biso  1.000000 Au
   Au863      1.0     0.204349      0.621738      0.308695     Biso  1.000000 Au
   Au864      1.0     0.239130      0.586956      0.308695     Biso  1.000000 Au
   Au865      1.0     0.239130      0.621738      0.343479     Biso  1.000000 Au
   Au866      1.0     0.273914      0.586956      0.343479     Biso  1.000000 Au
   Au867      1.0     0.273914      0.621738      0.308695     Biso  1.000000 Au
   Au868      1.0     0.308695      0.586956      0.308695     Biso  1.000000 Au
   Au869      1.0     0.308695      0.621738      0.343479     Biso  1.000000 Au
   Au870      1.0     0.343479      0.586956      0.343479     Biso  1.000000 Au
   Au871      1.0     0.343479      0.621738      0.308695     Biso  1.000000 Au
   Au872      1.0     0.378261      0.586956      0.308695     Biso  1.000000 Au
   Au873      1.0     0.378261      0.621738      0.343479     Biso  1.000000 Au
   Au874      1.0     0.413044      0.586956      0.343479     Biso  1.000000 Au
   Au875      1.0     0.413044      0.621738      0.308695     Biso  1.000000 Au
   Au876      1.0     0.447826      0.586956      0.308695     Biso  1.000000 Au
   Au877      1.0     0.447826      0.621738      0.343479     Biso  1.000000 Au
   Au878      1.0     0.482609      0.586956      0.343479     Biso  1.000000 Au
   Au879      1.0     0.482609      0.621738      0.308695     Biso  1.000000 Au
   Au880      1.0     0.517391      0.586956      0.308695     Biso  1.000000 Au
   Au881      1.0     0.517391      0.621738      0.343479     Biso  1.000000 Au
   Au882      1.0     0.552174      0.586956      0.343479     Biso  1.000000 Au
   Au883      1.0     0.552174      0.621738      0.308695     Biso  1.000000 Au
   Au884      1.0     0.586956      0.586956      0.308695     Biso  1.000000 Au
   Au885      1.0     0.586956      0.621738      0.343479     Biso  1.000000 Au
   Au886      1.0     0.621738      0.586956      0.343479     Biso  1.000000 Au
   Au887      1.0     0.621738      0.621738      0.308695     Biso  1.000000 Au
   Au888      1.0     0.656521      0.586956      0.308695     Biso  1.000000 Au
   Au889      1.0     0.656521      0.621738      0.343479     Biso  1.000000 Au
   Au890      1.0     0.691305      0.586956      0.343479     Biso  1.000000 Au
   Au891      1.0     0.691305      0.621738      0.308695     Biso  1.000000 Au
   Au892      1.0     0.726086      0.586956      0.308695     Biso  1.000000 Au
   Au893      1.0     0.726086      0.621738      0.343479     Biso  1.000000 Au
   Au894      1.0     0.760870      0.586956      0.343479     Biso  1.000000 Au
   Au895      1.0     0.760870      0.621738      0.308695     Biso  1.000000 Au
   Au896      1.0     0.795651      0.586956      0.308695     Biso  1.000000 Au
   Au897      1.0     0.795651      0.621738      0.343479     Biso  1.000000 Au
   Au898      1.0     0.830435      0.586956      0.343479     Biso  1.000000 Au
   Au899      1.0     0.830435      0.621738      0.308695     Biso  1.000000 Au
   Au900      1.0     0.865217      0.586956      0.308695     Biso  1.000000 Au
   Au901      1.0     0.865217      0.621738      0.343479     Biso  1.000000 Au
   Au902      1.0     0.169565      0.656521      0.308695     Biso  1.000000 Au
   Au903      1.0     0.169565      0.691305      0.343479     Biso  1.000000 Au
   Au904      1.0     0.204349      0.656521      0.343479     Biso  1.000000 Au
   Au905      1.0     0.204349      0.691305      0.308695     Biso  1.000000 Au
   Au906      1.0     0.239130      0.656521      0.308695     Biso  1.000000 Au
   Au907      1.0     0.239130      0.691305      0.343479     Biso  1.000000 Au
   Au908      1.0     0.273914      0.656521      0.343479     Biso  1.000000 Au
   Au909      1.0     0.273914      0.691305      0.308695     Biso  1.000000 Au
   Au910      1.0     0.308695      0.656521      0.308695     Biso  1.000000 Au
   Au911      1.0     0.308695      0.691305      0.343479     Biso  1.000000 Au
   Au912      1.0     0.343479      0.656521      0.343479     Biso  1.000000 Au
   Au913      1.0     0.343479      0.691305      0.308695     Biso  1.000000 Au
   Au914      1.0     0.378261      0.656521      0.308695     Biso  1.000000 Au
   Au915      1.0     0.378261      0.691305      0.343479     Biso  1.000000 Au
   Au916      1.0     0.413044      0.656521      0.343479     Biso  1.000000 Au
   Au917      1.0     0.413044      0.691305      0.308695     Biso  1.000000 Au
   Au918      1.0     0.447826      0.656521      0.308695     Biso  1.000000 Au
   Au919      1.0     0.447826      0.691305      0.343479     Biso  1.000000 Au
   Au920      1.0     0.482609      0.656521      0.343479     Biso  1.000000 Au
   Au921      1.0     0.482609      0.691305      0.308695     Biso  1.000000 Au
   Au922      1.0     0.517391      0.656521      0.308695     Biso  1.000000 Au
   Au923      1.0     0.517391      0.691305      0.343479     Biso  1.000000 Au
   Au924      1.0     0.552174      0.656521      0.343479     Biso  1.000000 Au
   Au925      1.0     0.552174      0.691305      0.308695     Biso  1.000000 Au
   Au926      1.0     0.586956      0.656521      0.308695     Biso  1.000000 Au
   Au927      1.0     0.586956      0.691305      0.343479     Biso  1.000000 Au
   Au928      1.0     0.621738      0.656521      0.343479     Biso  1.000000 Au
   Au929      1.0     0.621738      0.691305      0.308695     Biso  1.000000 Au
   Au930      1.0     0.656521      0.656521      0.308695     Biso  1.000000 Au
   Au931      1.0     0.656521      0.691305      0.343479     Biso  1.000000 Au
   Au932      1.0     0.691305      0.656521      0.343479     Biso  1.000000 Au
   Au933      1.0     0.691305      0.691305      0.308695     Biso  1.000000 Au
   Au934      1.0     0.726086      0.656521      0.308695     Biso  1.000000 Au
   Au935      1.0     0.726086      0.691305      0.343479     Biso  1.000000 Au
   Au936      1.0     0.760870      0.656521      0.343479     Biso  1.000000 Au
   Au937      1.0     0.760870      0.691305      0.308695     Biso  1.000000 Au
   Au938      1.0     0.795651      0.656521      0.308695     Biso  1.000000 Au
   Au939      1.0     0.795651      0.691305      0.343479     Biso  1.000000 Au
   Au940      1.0     0.830435      0.656521      0.343479     Biso  1.000000 Au
   Au941      1.0     0.204349      0.726086      0.343479     Biso  1.000000 Au
   Au942      1.0     0.239130      0.726086      0.308695     Biso  1.000000 Au
   Au943      1.0     0.239130      0.760870      0.343479     Biso  1.000000 Au
   Au944      1.0     0.273914      0.726086      0.343479     Biso  1.000000 Au
   Au945      1.0     0.273914      0.760870      0.308695     Biso  1.000000 Au
   Au946      1.0     0.308695      0.726086      0.308695     Biso  1.000000 Au
   Au947      1.0     0.308695      0.760870      0.343479     Biso  1.000000 Au
   Au948      1.0     0.343479      0.726086      0.343479     Biso  1.000000 Au
   Au949      1.0     0.343479      0.760870      0.308695     Biso  1.000000 Au
   Au950      1.0     0.378261      0.726086      0.308695     Biso  1.000000 Au
   Au951      1.0     0.378261      0.760870      0.343479     Biso  1.000000 Au
   Au952      1.0     0.413044      0.726086      0.343479     Biso  1.000000 Au
   Au953      1.0     0.413044      0.760870      0.308695     Biso  1.000000 Au
   Au954      1.0     0.447826      0.726086      0.308695     Biso  1.000000 Au
   Au955      1.0     0.447826      0.760870      0.343479     Biso  1.000000 Au
   Au956      1.0     0.482609      0.726086      0.343479     Biso  1.000000 Au
   Au957      1.0     0.482609      0.760870      0.308695     Biso  1.000000 Au
   Au958      1.0     0.517391      0.726086      0.308695     Biso  1.000000 Au
   Au959      1.0     0.517391      0.760870      0.343479     Biso  1.000000 Au
   Au960      1.0     0.552174      0.726086      0.343479     Biso  1.000000 Au
   Au961      1.0     0.552174      0.760870      0.308695     Biso  1.000000 Au
   Au962      1.0     0.586956      0.726086      0.308695     Biso  1.000000 Au
   Au963      1.0     0.586956      0.760870      0.343479     Biso  1.000000 Au
   Au964      1.0     0.621738      0.726086      0.343479     Biso  1.000000 Au
   Au965      1.0     0.621738      0.760870      0.308695     Biso  1.000000 Au
   Au966      1.0     0.656521      0.726086      0.308695     Biso  1.000000 Au
   Au967      1.0     0.656521      0.760870      0.343479     Biso  1.000000 Au
   Au968      1.0     0.691305      0.726086      0.343479     Biso  1.000000 Au
   Au969      1.0     0.691305      0.760870      0.308695     Biso  1.000000 Au
   Au970      1.0     0.726086      0.726086      0.308695     Biso  1.000000 Au
   Au971      1.0     0.726086      0.760870      0.343479     Biso  1.000000 Au
   Au972      1.0     0.760870      0.726086      0.343479     Biso  1.000000 Au
   Au973      1.0     0.760870      0.760870      0.308695     Biso  1.000000 Au
   Au974      1.0     0.795651      0.726086      0.308695     Biso  1.000000 Au
   Au975      1.0     0.795651      0.760870      0.343479     Biso  1.000000 Au
   Au976      1.0     0.273914      0.795651      0.343479     Biso  1.000000 Au
   Au977      1.0     0.308695      0.795651      0.308695     Biso  1.000000 Au
   Au978      1.0     0.308695      0.830435      0.343479     Biso  1.000000 Au
   Au979      1.0     0.343479      0.795651      0.343479     Biso  1.000000 Au
   Au980      1.0     0.343479      0.830435      0.308695     Biso  1.000000 Au
   Au981      1.0     0.378261      0.795651      0.308695     Biso  1.000000 Au
   Au982      1.0     0.378261      0.830435      0.343479     Biso  1.000000 Au
   Au983      1.0     0.413044      0.795651      0.343479     Biso  1.000000 Au
   Au984      1.0     0.413044      0.830435      0.308695     Biso  1.000000 Au
   Au985      1.0     0.447826      0.795651      0.308695     Biso  1.000000 Au
   Au986      1.0     0.447826      0.830435      0.343479     Biso  1.000000 Au
   Au987      1.0     0.482609      0.795651      0.343479     Biso  1.000000 Au
   Au988      1.0     0.482609      0.830435      0.308695     Biso  1.000000 Au
   Au989      1.0     0.517391      0.795651      0.308695     Biso  1.000000 Au
   Au990      1.0     0.517391      0.830435      0.343479     Biso  1.000000 Au
   Au991      1.0     0.552174      0.795651      0.343479     Biso  1.000000 Au
   Au992      1.0     0.552174      0.830435      0.308695     Biso  1.000000 Au
   Au993      1.0     0.586956      0.795651      0.308695     Biso  1.000000 Au
   Au994      1.0     0.586956      0.830435      0.343479     Biso  1.000000 Au
   Au995      1.0     0.621738      0.795651      0.343479     Biso  1.000000 Au
   Au996      1.0     0.621738      0.830435      0.308695     Biso  1.000000 Au
   Au997      1.0     0.656521      0.795651      0.308695     Biso  1.000000 Au
   Au998      1.0     0.656521      0.830435      0.343479     Biso  1.000000 Au
   Au999      1.0     0.691305      0.795651      0.343479     Biso  1.000000 Au
   Au1000     1.0     0.726086      0.795651      0.308695     Biso  1.000000 Au
   Au1001     1.0     0.760870      0.795651      0.343479     Biso  1.000000 Au
   Au1002     1.0     0.413044      0.865217      0.343479     Biso  1.000000 Au
   Au1003     1.0     0.447826      0.865217      0.308695     Biso  1.000000 Au
   Au1004     1.0     0.482609      0.865217      0.343479     Biso  1.000000 Au
   Au1005     1.0     0.517391      0.865217      0.308695     Biso  1.000000 Au
   Au1006     1.0     0.552174      0.865217      0.343479     Biso  1.000000 Au
   Au1007     1.0     0.586956      0.865217      0.308695     Biso  1.000000 Au
   Au1008     1.0     0.621738      0.865217      0.343479     Biso  1.000000 Au
   Au1009     1.0     0.308695      0.134783      0.413044     Biso  1.000000 Au
   Au1010     1.0     0.343479      0.134783      0.378261     Biso  1.000000 Au
   Au1011     1.0     0.378261      0.134783      0.413044     Biso  1.000000 Au
   Au1012     1.0     0.413044      0.100000      0.413044     Biso  1.000000 Au
   Au1013     1.0     0.413044      0.134783      0.378261     Biso  1.000000 Au
   Au1014     1.0     0.447826      0.100000      0.378261     Biso  1.000000 Au
   Au1015     1.0     0.447826      0.134783      0.413044     Biso  1.000000 Au
   Au1016     1.0     0.482609      0.100000      0.413044     Biso  1.000000 Au
   Au1017     1.0     0.482609      0.134783      0.378261     Biso  1.000000 Au
   Au1018     1.0     0.517391      0.100000      0.378261     Biso  1.000000 Au
   Au1019     1.0     0.517391      0.134783      0.413044     Biso  1.000000 Au
   Au1020     1.0     0.552174      0.100000      0.413044     Biso  1.000000 Au
   Au1021     1.0     0.552174      0.134783      0.378261     Biso  1.000000 Au
   Au1022     1.0     0.586956      0.134783      0.413044     Biso  1.000000 Au
   Au1023     1.0     0.621738      0.134783      0.378261     Biso  1.000000 Au
   Au1024     1.0     0.656521      0.134783      0.413044     Biso  1.000000 Au
   Au1025     1.0     0.239130      0.204349      0.413044     Biso  1.000000 Au
   Au1026     1.0     0.273914      0.169565      0.413044     Biso  1.000000 Au
   Au1027     1.0     0.273914      0.204349      0.378261     Biso  1.000000 Au
   Au1028     1.0     0.308695      0.169565      0.378261     Biso  1.000000 Au
   Au1029     1.0     0.308695      0.204349      0.413044     Biso  1.000000 Au
   Au1030     1.0     0.343479      0.169565      0.413044     Biso  1.000000 Au
   Au1031     1.0     0.343479      0.204349      0.378261     Biso  1.000000 Au
   Au1032     1.0     0.378261      0.169565      0.378261     Biso  1.000000 Au
   Au1033     1.0     0.378261      0.204349      0.413044     Biso  1.000000 Au
   Au1034     1.0     0.413044      0.169565      0.413044     Biso  1.000000 Au
   Au1035     1.0     0.413044      0.204349      0.378261     Biso  1.000000 Au
   Au1036     1.0     0.447826      0.169565      0.378261     Biso  1.000000 Au
   Au1037     1.0     0.447826      0.204349      0.413044     Biso  1.000000 Au
   Au1038     1.0     0.482609      0.169565      0.413044     Biso  1.000000 Au
   Au1039     1.0     0.482609      0.204349      0.378261     Biso  1.000000 Au
   Au1040     1.0     0.517391      0.169565      0.378261     Biso  1.000000 Au
   Au1041     1.0     0.517391      0.204349      0.413044     Biso  1.000000 Au
   Au1042     1.0     0.552174      0.169565      0.413044     Biso  1.000000 Au
   Au1043     1.0     0.552174      0.204349      0.378261     Biso  1.000000 Au
   Au1044     1.0     0.586956      0.169565      0.378261     Biso  1.000000 Au
   Au1045     1.0     0.586956      0.204349      0.413044     Biso  1.000000 Au
   Au1046     1.0     0.621738      0.169565      0.413044     Biso  1.000000 Au
   Au1047     1.0     0.621738      0.204349      0.378261     Biso  1.000000 Au
   Au1048     1.0     0.656521      0.169565      0.378261     Biso  1.000000 Au
   Au1049     1.0     0.656521      0.204349      0.413044     Biso  1.000000 Au
   Au1050     1.0     0.691305      0.169565      0.413044     Biso  1.000000 Au
   Au1051     1.0     0.691305      0.204349      0.378261     Biso  1.000000 Au
   Au1052     1.0     0.726086      0.169565      0.378261     Biso  1.000000 Au
   Au1053     1.0     0.726086      0.204349      0.413044     Biso  1.000000 Au
   Au1054     1.0     0.760870      0.204349      0.378261     Biso  1.000000 Au
   Au1055     1.0     0.169565      0.273914      0.413044     Biso  1.000000 Au
   Au1056     1.0     0.204349      0.239130      0.413044     Biso  1.000000 Au
   Au1057     1.0     0.204349      0.273914      0.378261     Biso  1.000000 Au
   Au1058     1.0     0.239130      0.239130      0.378261     Biso  1.000000 Au
   Au1059     1.0     0.239130      0.273914      0.413044     Biso  1.000000 Au
   Au1060     1.0     0.273914      0.239130      0.413044     Biso  1.000000 Au
   Au1061     1.0     0.273914      0.273914      0.378261     Biso  1.000000 Au
   Au1062     1.0     0.308695      0.239130      0.378261     Biso  1.000000 Au
   Au1063     1.0     0.308695      0.273914      0.413044     Biso  1.000000 Au
   Au1064     1.0     0.343479      0.239130      0.413044     Biso  1.000000 Au
   Au1065     1.0     0.343479      0.273914      0.378261     Biso  1.000000 Au
   Au1066     1.0     0.378261      0.239130      0.378261     Biso  1.000000 Au
   Au1067     1.0     0.378261      0.273914      0.413044     Biso  1.000000 Au
   Au1068     1.0     0.413044      0.239130      0.413044     Biso  1.000000 Au
   Au1069     1.0     0.413044      0.273914      0.378261     Biso  1.000000 Au
   Au1070     1.0     0.447826      0.239130      0.378261     Biso  1.000000 Au
   Au1071     1.0     0.447826      0.273914      0.413044     Biso  1.000000 Au
   Au1072     1.0     0.482609      0.239130      0.413044     Biso  1.000000 Au
   Au1073     1.0     0.482609      0.273914      0.378261     Biso  1.000000 Au
   Au1074     1.0     0.517391      0.239130      0.378261     Biso  1.000000 Au
   Au1075     1.0     0.517391      0.273914      0.413044     Biso  1.000000 Au
   Au1076     1.0     0.552174      0.239130      0.413044     Biso  1.000000 Au
   Au1077     1.0     0.552174      0.273914      0.378261     Biso  1.000000 Au
   Au1078     1.0     0.586956      0.239130      0.378261     Biso  1.000000 Au
   Au1079     1.0     0.586956      0.273914      0.413044     Biso  1.000000 Au
   Au1080     1.0     0.621738      0.239130      0.413044     Biso  1.000000 Au
   Au1081     1.0     0.621738      0.273914      0.378261     Biso  1.000000 Au
   Au1082     1.0     0.656521      0.239130      0.378261     Biso  1.000000 Au
   Au1083     1.0     0.656521      0.273914      0.413044     Biso  1.000000 Au
   Au1084     1.0     0.691305      0.239130      0.413044     Biso  1.000000 Au
   Au1085     1.0     0.691305      0.273914      0.378261     Biso  1.000000 Au
   Au1086     1.0     0.726086      0.239130      0.378261     Biso  1.000000 Au
   Au1087     1.0     0.726086      0.273914      0.413044     Biso  1.000000 Au
   Au1088     1.0     0.760870      0.239130      0.413044     Biso  1.000000 Au
   Au1089     1.0     0.760870      0.273914      0.378261     Biso  1.000000 Au
   Au1090     1.0     0.795651      0.239130      0.378261     Biso  1.000000 Au
   Au1091     1.0     0.795651      0.273914      0.413044     Biso  1.000000 Au
   Au1092     1.0     0.830435      0.273914      0.378261     Biso  1.000000 Au
   Au1093     1.0     0.134783      0.308695      0.413044     Biso  1.000000 Au
   Au1094     1.0     0.134783      0.343479      0.378261     Biso  1.000000 Au
   Au1095     1.0     0.169565      0.308695      0.378261     Biso  1.000000 Au
   Au1096     1.0     0.169565      0.343479      0.413044     Biso  1.000000 Au
   Au1097     1.0     0.204349      0.308695      0.413044     Biso  1.000000 Au
   Au1098     1.0     0.204349      0.343479      0.378261     Biso  1.000000 Au
   Au1099     1.0     0.239130      0.308695      0.378261     Biso  1.000000 Au
   Au1100     1.0     0.239130      0.343479      0.413044     Biso  1.000000 Au
   Au1101     1.0     0.273914      0.308695      0.413044     Biso  1.000000 Au
   Au1102     1.0     0.273914      0.343479      0.378261     Biso  1.000000 Au
   Au1103     1.0     0.308695      0.308695      0.378261     Biso  1.000000 Au
   Au1104     1.0     0.308695      0.343479      0.413044     Biso  1.000000 Au
   Au1105     1.0     0.343479      0.308695      0.413044     Biso  1.000000 Au
   Au1106     1.0     0.343479      0.343479      0.378261     Biso  1.000000 Au
   Au1107     1.0     0.378261      0.308695      0.378261     Biso  1.000000 Au
   Au1108     1.0     0.378261      0.343479      0.413044     Biso  1.000000 Au
   Au1109     1.0     0.413044      0.308695      0.413044     Biso  1.000000 Au
   Au1110     1.0     0.413044      0.343479      0.378261     Biso  1.000000 Au
   Au1111     1.0     0.447826      0.308695      0.378261     Biso  1.000000 Au
   Au1112     1.0     0.447826      0.343479      0.413044     Biso  1.000000 Au
   Au1113     1.0     0.482609      0.308695      0.413044     Biso  1.000000 Au
   Au1114     1.0     0.482609      0.343479      0.378261     Biso  1.000000 Au
   Au1115     1.0     0.517391      0.308695      0.378261     Biso  1.000000 Au
   Au1116     1.0     0.517391      0.343479      0.413044     Biso  1.000000 Au
   Au1117     1.0     0.552174      0.308695      0.413044     Biso  1.000000 Au
   Au1118     1.0     0.552174      0.343479      0.378261     Biso  1.000000 Au
   Au1119     1.0     0.586956      0.308695      0.378261     Biso  1.000000 Au
   Au1120     1.0     0.586956      0.343479      0.413044     Biso  1.000000 Au
   Au1121     1.0     0.621738      0.308695      0.413044     Biso  1.000000 Au
   Au1122     1.0     0.621738      0.343479      0.378261     Biso  1.000000 Au
   Au1123     1.0     0.656521      0.308695      0.378261     Biso  1.000000 Au
   Au1124     1.0     0.656521      0.343479      0.413044     Biso  1.000000 Au
   Au1125     1.0     0.691305      0.308695      0.413044     Biso  1.000000 Au
   Au1126     1.0     0.691305      0.343479      0.378261     Biso  1.000000 Au
   Au1127     1.0     0.726086      0.308695      0.378261     Biso  1.000000 Au
   Au1128     1.0     0.726086      0.343479      0.413044     Biso  1.000000 Au
   Au1129     1.0     0.760870      0.308695      0.413044     Biso  1.000000 Au
   Au1130     1.0     0.760870      0.343479      0.378261     Biso  1.000000 Au
   Au1131     1.0     0.795651      0.308695      0.378261     Biso  1.000000 Au
   Au1132     1.0     0.795651      0.343479      0.413044     Biso  1.000000 Au
   Au1133     1.0     0.830435      0.308695      0.413044     Biso  1.000000 Au
   Au1134     1.0     0.830435      0.343479      0.378261     Biso  1.000000 Au
   Au1135     1.0     0.865217      0.343479      0.413044     Biso  1.000000 Au
   Au1136     1.0     0.100000      0.413044      0.413044     Biso  1.000000 Au
   Au1137     1.0     0.134783      0.378261      0.413044     Biso  1.000000 Au
   Au1138     1.0     0.134783      0.413044      0.378261     Biso  1.000000 Au
   Au1139     1.0     0.169565      0.378261      0.378261     Biso  1.000000 Au
   Au1140     1.0     0.169565      0.413044      0.413044     Biso  1.000000 Au
   Au1141     1.0     0.204349      0.378261      0.413044     Biso  1.000000 Au
   Au1142     1.0     0.204349      0.413044      0.378261     Biso  1.000000 Au
   Au1143     1.0     0.239130      0.378261      0.378261     Biso  1.000000 Au
   Au1144     1.0     0.239130      0.413044      0.413044     Biso  1.000000 Au
   Au1145     1.0     0.273914      0.378261      0.413044     Biso  1.000000 Au
   Au1146     1.0     0.273914      0.413044      0.378261     Biso  1.000000 Au
   Au1147     1.0     0.308695      0.378261      0.378261     Biso  1.000000 Au
   Au1148     1.0     0.308695      0.413044      0.413044     Biso  1.000000 Au
   Au1149     1.0     0.343479      0.378261      0.413044     Biso  1.000000 Au
   Au1150     1.0     0.343479      0.413044      0.378261     Biso  1.000000 Au
   Au1151     1.0     0.378261      0.378261      0.378261     Biso  1.000000 Au
   Au1152     1.0     0.378261      0.413044      0.413044     Biso  1.000000 Au
   Au1153     1.0     0.413044      0.378261      0.413044     Biso  1.000000 Au
   Au1154     1.0     0.413044      0.413044      0.378261     Biso  1.000000 Au
   Au1155     1.0     0.447826      0.378261      0.378261     Biso  1.000000 Au
   Au1156     1.0     0.447826      0.413044      0.413044     Biso  1.000000 Au
   Au1157     1.0     0.482609      0.378261      0.413044     Biso  1.000000 Au
   Au1158     1.0     0.482609      0.413044      0.378261     Biso  1.000000 Au
   Au1159     1.0     0.517391      0.378261      0.378261     Biso  1.000000 Au
   Au1160     1.0     0.517391      0.413044      0.413044     Biso  1.000000 Au
   Au1161     1.0     0.552174      0.378261      0.413044     Biso  1.000000 Au
   Au1162     1.0     0.552174      0.413044      0.378261     Biso  1.000000 Au
   Au1163     1.0     0.586956      0.378261      0.378261     Biso  1.000000 Au
   Au1164     1.0     0.586956      0.413044      0.413044     Biso  1.000000 Au
   Au1165     1.0     0.621738      0.378261      0.413044     Biso  1.000000 Au
   Au1166     1.0     0.621738      0.413044      0.378261     Biso  1.000000 Au
   Au1167     1.0     0.656521      0.378261      0.378261     Biso  1.000000 Au
   Au1168     1.0     0.656521      0.413044      0.413044     Biso  1.000000 Au
   Au1169     1.0     0.691305      0.378261      0.413044     Biso  1.000000 Au
   Au1170     1.0     0.691305      0.413044      0.378261     Biso  1.000000 Au
   Au1171     1.0     0.726086      0.378261      0.378261     Biso  1.000000 Au
   Au1172     1.0     0.726086      0.413044      0.413044     Biso  1.000000 Au
   Au1173     1.0     0.760870      0.378261      0.413044     Biso  1.000000 Au
   Au1174     1.0     0.760870      0.413044      0.378261     Biso  1.000000 Au
   Au1175     1.0     0.795651      0.378261      0.378261     Biso  1.000000 Au
   Au1176     1.0     0.795651      0.413044      0.413044     Biso  1.000000 Au
   Au1177     1.0     0.830435      0.378261      0.413044     Biso  1.000000 Au
   Au1178     1.0     0.830435      0.413044      0.378261     Biso  1.000000 Au
   Au1179     1.0     0.865217      0.378261      0.378261     Biso  1.000000 Au
   Au1180     1.0     0.865217      0.413044      0.413044     Biso  1.000000 Au
   Au1181     1.0     0.100000      0.447826      0.378261     Biso  1.000000 Au
   Au1182     1.0     0.100000      0.482609      0.413044     Biso  1.000000 Au
   Au1183     1.0     0.134783      0.447826      0.413044     Biso  1.000000 Au
   Au1184     1.0     0.134783      0.482609      0.378261     Biso  1.000000 Au
   Au1185     1.0     0.169565      0.447826      0.378261     Biso  1.000000 Au
   Au1186     1.0     0.169565      0.482609      0.413044     Biso  1.000000 Au
   Au1187     1.0     0.204349      0.447826      0.413044     Biso  1.000000 Au
   Au1188     1.0     0.204349      0.482609      0.378261     Biso  1.000000 Au
   Au1189     1.0     0.239130      0.447826      0.378261     Biso  1.000000 Au
   Au1190     1.0     0.239130      0.482609      0.413044     Biso  1.000000 Au
   Au1191     1.0     0.273914      0.447826      0.413044     Biso  1.000000 Au
   Au1192     1.0     0.273914      0.482609      0.378261     Biso  1.000000 Au
   Au1193     1.0     0.308695      0.447826      0.378261     Biso  1.000000 Au
   Au1194     1.0     0.308695      0.482609      0.413044     Biso  1.000000 Au
   Au1195     1.0     0.343479      0.447826      0.413044     Biso  1.000000 Au
   Au1196     1.0     0.343479      0.482609      0.378261     Biso  1.000000 Au
   Au1197     1.0     0.378261      0.447826      0.378261     Biso  1.000000 Au
   Au1198     1.0     0.378261      0.482609      0.413044     Biso  1.000000 Au
   Au1199     1.0     0.413044      0.447826      0.413044     Biso  1.000000 Au
   Au1200     1.0     0.413044      0.482609      0.378261     Biso  1.000000 Au
   Au1201     1.0     0.447826      0.447826      0.378261     Biso  1.000000 Au
   Au1202     1.0     0.447826      0.482609      0.413044     Biso  1.000000 Au
   Au1203     1.0     0.482609      0.447826      0.413044     Biso  1.000000 Au
   Au1204     1.0     0.482609      0.482609      0.378261     Biso  1.000000 Au
   Au1205     1.0     0.517391      0.447826      0.378261     Biso  1.000000 Au
   Au1206     1.0     0.517391      0.482609      0.413044     Biso  1.000000 Au
   Au1207     1.0     0.552174      0.447826      0.413044     Biso  1.000000 Au
   Au1208     1.0     0.552174      0.482609      0.378261     Biso  1.000000 Au
   Au1209     1.0     0.586956      0.447826      0.378261     Biso  1.000000 Au
   Au1210     1.0     0.586956      0.482609      0.413044     Biso  1.000000 Au
   Au1211     1.0     0.621738      0.447826      0.413044     Biso  1.000000 Au
   Au1212     1.0     0.621738      0.482609      0.378261     Biso  1.000000 Au
   Au1213     1.0     0.656521      0.447826      0.378261     Biso  1.000000 Au
   Au1214     1.0     0.656521      0.482609      0.413044     Biso  1.000000 Au
   Au1215     1.0     0.691305      0.447826      0.413044     Biso  1.000000 Au
   Au1216     1.0     0.691305      0.482609      0.378261     Biso  1.000000 Au
   Au1217     1.0     0.726086      0.447826      0.378261     Biso  1.000000 Au
   Au1218     1.0     0.726086      0.482609      0.413044     Biso  1.000000 Au
   Au1219     1.0     0.760870      0.447826      0.413044     Biso  1.000000 Au
   Au1220     1.0     0.760870      0.482609      0.378261     Biso  1.000000 Au
   Au1221     1.0     0.795651      0.447826      0.378261     Biso  1.000000 Au
   Au1222     1.0     0.795651      0.482609      0.413044     Biso  1.000000 Au
   Au1223     1.0     0.830435      0.447826      0.413044     Biso  1.000000 Au
   Au1224     1.0     0.830435      0.482609      0.378261     Biso  1.000000 Au
   Au1225     1.0     0.865217      0.447826      0.378261     Biso  1.000000 Au
   Au1226     1.0     0.865217      0.482609      0.413044     Biso  1.000000 Au
   Au1227     1.0     0.900000      0.447826      0.413044     Biso  1.000000 Au
   Au1228     1.0     0.900000      0.482609      0.378261     Biso  1.000000 Au
   Au1229     1.0     0.100000      0.517391      0.378261     Biso  1.000000 Au
   Au1230     1.0     0.100000      0.552174      0.413044     Biso  1.000000 Au
   Au1231     1.0     0.134783      0.517391      0.413044     Biso  1.000000 Au
   Au1232     1.0     0.134783      0.552174      0.378261     Biso  1.000000 Au
   Au1233     1.0     0.169565      0.517391      0.378261     Biso  1.000000 Au
   Au1234     1.0     0.169565      0.552174      0.413044     Biso  1.000000 Au
   Au1235     1.0     0.204349      0.517391      0.413044     Biso  1.000000 Au
   Au1236     1.0     0.204349      0.552174      0.378261     Biso  1.000000 Au
   Au1237     1.0     0.239130      0.517391      0.378261     Biso  1.000000 Au
   Au1238     1.0     0.239130      0.552174      0.413044     Biso  1.000000 Au
   Au1239     1.0     0.273914      0.517391      0.413044     Biso  1.000000 Au
   Au1240     1.0     0.273914      0.552174      0.378261     Biso  1.000000 Au
   Au1241     1.0     0.308695      0.517391      0.378261     Biso  1.000000 Au
   Au1242     1.0     0.308695      0.552174      0.413044     Biso  1.000000 Au
   Au1243     1.0     0.343479      0.517391      0.413044     Biso  1.000000 Au
   Au1244     1.0     0.343479      0.552174      0.378261     Biso  1.000000 Au
   Au1245     1.0     0.378261      0.517391      0.378261     Biso  1.000000 Au
   Au1246     1.0     0.378261      0.552174      0.413044     Biso  1.000000 Au
   Au1247     1.0     0.413044      0.517391      0.413044     Biso  1.000000 Au
   Au1248     1.0     0.413044      0.552174      0.378261     Biso  1.000000 Au
   Au1249     1.0     0.447826      0.517391      0.378261     Biso  1.000000 Au
   Au1250     1.0     0.447826      0.552174      0.413044     Biso  1.000000 Au
   Au1251     1.0     0.482609      0.517391      0.413044     Biso  1.000000 Au
   Au1252     1.0     0.482609      0.552174      0.378261     Biso  1.000000 Au
   Au1253     1.0     0.517391      0.517391      0.378261     Biso  1.000000 Au
   Au1254     1.0     0.517391      0.552174      0.413044     Biso  1.000000 Au
   Au1255     1.0     0.552174      0.517391      0.413044     Biso  1.000000 Au
   Au1256     1.0     0.552174      0.552174      0.378261     Biso  1.000000 Au
   Au1257     1.0     0.586956      0.517391      0.378261     Biso  1.000000 Au
   Au1258     1.0     0.586956      0.552174      0.413044     Biso  1.000000 Au
   Au1259     1.0     0.621738      0.517391      0.413044     Biso  1.000000 Au
   Au1260     1.0     0.621738      0.552174      0.378261     Biso  1.000000 Au
   Au1261     1.0     0.656521      0.517391      0.378261     Biso  1.000000 Au
   Au1262     1.0     0.656521      0.552174      0.413044     Biso  1.000000 Au
   Au1263     1.0     0.691305      0.517391      0.413044     Biso  1.000000 Au
   Au1264     1.0     0.691305      0.552174      0.378261     Biso  1.000000 Au
   Au1265     1.0     0.726086      0.517391      0.378261     Biso  1.000000 Au
   Au1266     1.0     0.726086      0.552174      0.413044     Biso  1.000000 Au
   Au1267     1.0     0.760870      0.517391      0.413044     Biso  1.000000 Au
   Au1268     1.0     0.760870      0.552174      0.378261     Biso  1.000000 Au
   Au1269     1.0     0.795651      0.517391      0.378261     Biso  1.000000 Au
   Au1270     1.0     0.795651      0.552174      0.413044     Biso  1.000000 Au
   Au1271     1.0     0.830435      0.517391      0.413044     Biso  1.000000 Au
   Au1272     1.0     0.830435      0.552174      0.378261     Biso  1.000000 Au
   Au1273     1.0     0.865217      0.517391      0.378261     Biso  1.000000 Au
   Au1274     1.0     0.865217      0.552174      0.413044     Biso  1.000000 Au
   Au1275     1.0     0.900000      0.517391      0.413044     Biso  1.000000 Au
   Au1276     1.0     0.900000      0.552174      0.378261     Biso  1.000000 Au
   Au1277     1.0     0.134783      0.586956      0.413044     Biso  1.000000 Au
   Au1278     1.0     0.134783      0.621738      0.378261     Biso  1.000000 Au
   Au1279     1.0     0.169565      0.586956      0.378261     Biso  1.000000 Au
   Au1280     1.0     0.169565      0.621738      0.413044     Biso  1.000000 Au
   Au1281     1.0     0.204349      0.586956      0.413044     Biso  1.000000 Au
   Au1282     1.0     0.204349      0.621738      0.378261     Biso  1.000000 Au
   Au1283     1.0     0.239130      0.586956      0.378261     Biso  1.000000 Au
   Au1284     1.0     0.239130      0.621738      0.413044     Biso  1.000000 Au
   Au1285     1.0     0.273914      0.586956      0.413044     Biso  1.000000 Au
   Au1286     1.0     0.273914      0.621738      0.378261     Biso  1.000000 Au
   Au1287     1.0     0.308695      0.586956      0.378261     Biso  1.000000 Au
   Au1288     1.0     0.308695      0.621738      0.413044     Biso  1.000000 Au
   Au1289     1.0     0.343479      0.586956      0.413044     Biso  1.000000 Au
   Au1290     1.0     0.343479      0.621738      0.378261     Biso  1.000000 Au
   Au1291     1.0     0.378261      0.586956      0.378261     Biso  1.000000 Au
   Au1292     1.0     0.378261      0.621738      0.413044     Biso  1.000000 Au
   Au1293     1.0     0.413044      0.586956      0.413044     Biso  1.000000 Au
   Au1294     1.0     0.413044      0.621738      0.378261     Biso  1.000000 Au
   Au1295     1.0     0.447826      0.586956      0.378261     Biso  1.000000 Au
   Au1296     1.0     0.447826      0.621738      0.413044     Biso  1.000000 Au
   Au1297     1.0     0.482609      0.586956      0.413044     Biso  1.000000 Au
   Au1298     1.0     0.482609      0.621738      0.378261     Biso  1.000000 Au
   Au1299     1.0     0.517391      0.586956      0.378261     Biso  1.000000 Au
   Au1300     1.0     0.517391      0.621738      0.413044     Biso  1.000000 Au
   Au1301     1.0     0.552174      0.586956      0.413044     Biso  1.000000 Au
   Au1302     1.0     0.552174      0.621738      0.378261     Biso  1.000000 Au
   Au1303     1.0     0.586956      0.586956      0.378261     Biso  1.000000 Au
   Au1304     1.0     0.586956      0.621738      0.413044     Biso  1.000000 Au
   Au1305     1.0     0.621738      0.586956      0.413044     Biso  1.000000 Au
   Au1306     1.0     0.621738      0.621738      0.378261     Biso  1.000000 Au
   Au1307     1.0     0.656521      0.586956      0.378261     Biso  1.000000 Au
   Au1308     1.0     0.656521      0.621738      0.413044     Biso  1.000000 Au
   Au1309     1.0     0.691305      0.586956      0.413044     Biso  1.000000 Au
   Au1310     1.0     0.691305      0.621738      0.378261     Biso  1.000000 Au
   Au1311     1.0     0.726086      0.586956      0.378261     Biso  1.000000 Au
   Au1312     1.0     0.726086      0.621738      0.413044     Biso  1.000000 Au
   Au1313     1.0     0.760870      0.586956      0.413044     Biso  1.000000 Au
   Au1314     1.0     0.760870      0.621738      0.378261     Biso  1.000000 Au
   Au1315     1.0     0.795651      0.586956      0.378261     Biso  1.000000 Au
   Au1316     1.0     0.795651      0.621738      0.413044     Biso  1.000000 Au
   Au1317     1.0     0.830435      0.586956      0.413044     Biso  1.000000 Au
   Au1318     1.0     0.830435      0.621738      0.378261     Biso  1.000000 Au
   Au1319     1.0     0.865217      0.586956      0.378261     Biso  1.000000 Au
   Au1320     1.0     0.865217      0.621738      0.413044     Biso  1.000000 Au
   Au1321     1.0     0.900000      0.586956      0.413044     Biso  1.000000 Au
   Au1322     1.0     0.134783      0.656521      0.413044     Biso  1.000000 Au
   Au1323     1.0     0.169565      0.656521      0.378261     Biso  1.000000 Au
   Au1324     1.0     0.169565      0.691305      0.413044     Biso  1.000000 Au
   Au1325     1.0     0.204349      0.656521      0.413044     Biso  1.000000 Au
   Au1326     1.0     0.204349      0.691305      0.378261     Biso  1.000000 Au
   Au1327     1.0     0.239130      0.656521      0.378261     Biso  1.000000 Au
   Au1328     1.0     0.239130      0.691305      0.413044     Biso  1.000000 Au
   Au1329     1.0     0.273914      0.656521      0.413044     Biso  1.000000 Au
   Au1330     1.0     0.273914      0.691305      0.378261     Biso  1.000000 Au
   Au1331     1.0     0.308695      0.656521      0.378261     Biso  1.000000 Au
   Au1332     1.0     0.308695      0.691305      0.413044     Biso  1.000000 Au
   Au1333     1.0     0.343479      0.656521      0.413044     Biso  1.000000 Au
   Au1334     1.0     0.343479      0.691305      0.378261     Biso  1.000000 Au
   Au1335     1.0     0.378261      0.656521      0.378261     Biso  1.000000 Au
   Au1336     1.0     0.378261      0.691305      0.413044     Biso  1.000000 Au
   Au1337     1.0     0.413044      0.656521      0.413044     Biso  1.000000 Au
   Au1338     1.0     0.413044      0.691305      0.378261     Biso  1.000000 Au
   Au1339     1.0     0.447826      0.656521      0.378261     Biso  1.000000 Au
   Au1340     1.0     0.447826      0.691305      0.413044     Biso  1.000000 Au
   Au1341     1.0     0.482609      0.656521      0.413044     Biso  1.000000 Au
   Au1342     1.0     0.482609      0.691305      0.378261     Biso  1.000000 Au
   Au1343     1.0     0.517391      0.656521      0.378261     Biso  1.000000 Au
   Au1344     1.0     0.517391      0.691305      0.413044     Biso  1.000000 Au
   Au1345     1.0     0.552174      0.656521      0.413044     Biso  1.000000 Au
   Au1346     1.0     0.552174      0.691305      0.378261     Biso  1.000000 Au
   Au1347     1.0     0.586956      0.656521      0.378261     Biso  1.000000 Au
   Au1348     1.0     0.586956      0.691305      0.413044     Biso  1.000000 Au
   Au1349     1.0     0.621738      0.656521      0.413044     Biso  1.000000 Au
   Au1350     1.0     0.621738      0.691305      0.378261     Biso  1.000000 Au
   Au1351     1.0     0.656521      0.656521      0.378261     Biso  1.000000 Au
   Au1352     1.0     0.656521      0.691305      0.413044     Biso  1.000000 Au
   Au1353     1.0     0.691305      0.656521      0.413044     Biso  1.000000 Au
   Au1354     1.0     0.691305      0.691305      0.378261     Biso  1.000000 Au
   Au1355     1.0     0.726086      0.656521      0.378261     Biso  1.000000 Au
   Au1356     1.0     0.726086      0.691305      0.413044     Biso  1.000000 Au
   Au1357     1.0     0.760870      0.656521      0.413044     Biso  1.000000 Au
   Au1358     1.0     0.760870      0.691305      0.378261     Biso  1.000000 Au
   Au1359     1.0     0.795651      0.656521      0.378261     Biso  1.000000 Au
   Au1360     1.0     0.795651      0.691305      0.413044     Biso  1.000000 Au
   Au1361     1.0     0.830435      0.656521      0.413044     Biso  1.000000 Au
   Au1362     1.0     0.830435      0.691305      0.378261     Biso  1.000000 Au
   Au1363     1.0     0.865217      0.656521      0.378261     Biso  1.000000 Au
   Au1364     1.0     0.865217      0.691305      0.413044     Biso  1.000000 Au
   Au1365     1.0     0.169565      0.726086      0.378261     Biso  1.000000 Au
   Au1366     1.0     0.204349      0.726086      0.413044     Biso  1.000000 Au
   Au1367     1.0     0.204349      0.760870      0.378261     Biso  1.000000 Au
   Au1368     1.0     0.239130      0.726086      0.378261     Biso  1.000000 Au
   Au1369     1.0     0.239130      0.760870      0.413044     Biso  1.000000 Au
   Au1370     1.0     0.273914      0.726086      0.413044     Biso  1.000000 Au
   Au1371     1.0     0.273914      0.760870      0.378261     Biso  1.000000 Au
   Au1372     1.0     0.308695      0.726086      0.378261     Biso  1.000000 Au
   Au1373     1.0     0.308695      0.760870      0.413044     Biso  1.000000 Au
   Au1374     1.0     0.343479      0.726086      0.413044     Biso  1.000000 Au
   Au1375     1.0     0.343479      0.760870      0.378261     Biso  1.000000 Au
   Au1376     1.0     0.378261      0.726086      0.378261     Biso  1.000000 Au
   Au1377     1.0     0.378261      0.760870      0.413044     Biso  1.000000 Au
   Au1378     1.0     0.413044      0.726086      0.413044     Biso  1.000000 Au
   Au1379     1.0     0.413044      0.760870      0.378261     Biso  1.000000 Au
   Au1380     1.0     0.447826      0.726086      0.378261     Biso  1.000000 Au
   Au1381     1.0     0.447826      0.760870      0.413044     Biso  1.000000 Au
   Au1382     1.0     0.482609      0.726086      0.413044     Biso  1.000000 Au
   Au1383     1.0     0.482609      0.760870      0.378261     Biso  1.000000 Au
   Au1384     1.0     0.517391      0.726086      0.378261     Biso  1.000000 Au
   Au1385     1.0     0.517391      0.760870      0.413044     Biso  1.000000 Au
   Au1386     1.0     0.552174      0.726086      0.413044     Biso  1.000000 Au
   Au1387     1.0     0.552174      0.760870      0.378261     Biso  1.000000 Au
   Au1388     1.0     0.586956      0.726086      0.378261     Biso  1.000000 Au
   Au1389     1.0     0.586956      0.760870      0.413044     Biso  1.000000 Au
   Au1390     1.0     0.621738      0.726086      0.413044     Biso  1.000000 Au
   Au1391     1.0     0.621738      0.760870      0.378261     Biso  1.000000 Au
   Au1392     1.0     0.656521      0.726086      0.378261     Biso  1.000000 Au
   Au1393     1.0     0.656521      0.760870      0.413044     Biso  1.000000 Au
   Au1394     1.0     0.691305      0.726086      0.413044     Biso  1.000000 Au
   Au1395     1.0     0.691305      0.760870      0.378261     Biso  1.000000 Au
   Au1396     1.0     0.726086      0.726086      0.378261     Biso  1.000000 Au
   Au1397     1.0     0.726086      0.760870      0.413044     Biso  1.000000 Au
   Au1398     1.0     0.760870      0.726086      0.413044     Biso  1.000000 Au
   Au1399     1.0     0.760870      0.760870      0.378261     Biso  1.000000 Au
   Au1400     1.0     0.795651      0.726086      0.378261     Biso  1.000000 Au
   Au1401     1.0     0.795651      0.760870      0.413044     Biso  1.000000 Au
   Au1402     1.0     0.830435      0.726086      0.413044     Biso  1.000000 Au
   Au1403     1.0     0.239130      0.795651      0.378261     Biso  1.000000 Au
   Au1404     1.0     0.273914      0.795651      0.413044     Biso  1.000000 Au
   Au1405     1.0     0.273914      0.830435      0.378261     Biso  1.000000 Au
   Au1406     1.0     0.308695      0.795651      0.378261     Biso  1.000000 Au
   Au1407     1.0     0.308695      0.830435      0.413044     Biso  1.000000 Au
   Au1408     1.0     0.343479      0.795651      0.413044     Biso  1.000000 Au
   Au1409     1.0     0.343479      0.830435      0.378261     Biso  1.000000 Au
   Au1410     1.0     0.378261      0.795651      0.378261     Biso  1.000000 Au
   Au1411     1.0     0.378261      0.830435      0.413044     Biso  1.000000 Au
   Au1412     1.0     0.413044      0.795651      0.413044     Biso  1.000000 Au
   Au1413     1.0     0.413044      0.830435      0.378261     Biso  1.000000 Au
   Au1414     1.0     0.447826      0.795651      0.378261     Biso  1.000000 Au
   Au1415     1.0     0.447826      0.830435      0.413044     Biso  1.000000 Au
   Au1416     1.0     0.482609      0.795651      0.413044     Biso  1.000000 Au
   Au1417     1.0     0.482609      0.830435      0.378261     Biso  1.000000 Au
   Au1418     1.0     0.517391      0.795651      0.378261     Biso  1.000000 Au
   Au1419     1.0     0.517391      0.830435      0.413044     Biso  1.000000 Au
   Au1420     1.0     0.552174      0.795651      0.413044     Biso  1.000000 Au
   Au1421     1.0     0.552174      0.830435      0.378261     Biso  1.000000 Au
   Au1422     1.0     0.586956      0.795651      0.378261     Biso  1.000000 Au
   Au1423     1.0     0.586956      0.830435      0.413044     Biso  1.000000 Au
   Au1424     1.0     0.621738      0.795651      0.413044     Biso  1.000000 Au
   Au1425     1.0     0.621738      0.830435      0.378261     Biso  1.000000 Au
   Au1426     1.0     0.656521      0.795651      0.378261     Biso  1.000000 Au
   Au1427     1.0     0.656521      0.830435      0.413044     Biso  1.000000 Au
   Au1428     1.0     0.691305      0.795651      0.413044     Biso  1.000000 Au
   Au1429     1.0     0.691305      0.830435      0.378261     Biso  1.000000 Au
   Au1430     1.0     0.726086      0.795651      0.378261     Biso  1.000000 Au
   Au1431     1.0     0.726086      0.830435      0.413044     Biso  1.000000 Au
   Au1432     1.0     0.760870      0.795651      0.413044     Biso  1.000000 Au
   Au1433     1.0     0.343479      0.865217      0.413044     Biso  1.000000 Au
   Au1434     1.0     0.378261      0.865217      0.378261     Biso  1.000000 Au
   Au1435     1.0     0.413044      0.865217      0.413044     Biso  1.000000 Au
   Au1436     1.0     0.447826      0.865217      0.378261     Biso  1.000000 Au
   Au1437     1.0     0.447826      0.900000      0.413044     Biso  1.000000 Au
   Au1438     1.0     0.482609      0.865217      0.413044     Biso  1.000000 Au
   Au1439     1.0     0.482609      0.900000      0.378261     Biso  1.000000 Au
   Au1440     1.0     0.517391      0.865217      0.378261     Biso  1.000000 Au
   Au1441     1.0     0.517391      0.900000      0.413044     Biso  1.000000 Au
   Au1442     1.0     0.552174      0.865217      0.413044     Biso  1.000000 Au
   Au1443     1.0     0.552174      0.900000      0.378261     Biso  1.000000 Au
   Au1444     1.0     0.586956      0.865217      0.378261     Biso  1.000000 Au
   Au1445     1.0     0.586956      0.900000      0.413044     Biso  1.000000 Au
   Au1446     1.0     0.621738      0.865217      0.413044     Biso  1.000000 Au
   Au1447     1.0     0.656521      0.865217      0.378261     Biso  1.000000 Au
   Au1448     1.0     0.691305      0.865217      0.413044     Biso  1.000000 Au
   Au1449     1.0     0.308695      0.134783      0.482609     Biso  1.000000 Au
   Au1450     1.0     0.343479      0.134783      0.447826     Biso  1.000000 Au
   Au1451     1.0     0.378261      0.100000      0.447826     Biso  1.000000 Au
   Au1452     1.0     0.378261      0.134783      0.482609     Biso  1.000000 Au
   Au1453     1.0     0.413044      0.100000      0.482609     Biso  1.000000 Au
   Au1454     1.0     0.413044      0.134783      0.447826     Biso  1.000000 Au
   Au1455     1.0     0.447826      0.100000      0.447826     Biso  1.000000 Au
   Au1456     1.0     0.447826      0.134783      0.482609     Biso  1.000000 Au
   Au1457     1.0     0.482609      0.100000      0.482609     Biso  1.000000 Au
   Au1458     1.0     0.482609      0.134783      0.447826     Biso  1.000000 Au
   Au1459     1.0     0.517391      0.100000      0.447826     Biso  1.000000 Au
   Au1460     1.0     0.517391      0.134783      0.482609     Biso  1.000000 Au
   Au1461     1.0     0.552174      0.100000      0.482609     Biso  1.000000 Au
   Au1462     1.0     0.552174      0.134783      0.447826     Biso  1.000000 Au
   Au1463     1.0     0.586956      0.100000      0.447826     Biso  1.000000 Au
   Au1464     1.0     0.586956      0.134783      0.482609     Biso  1.000000 Au
   Au1465     1.0     0.621738      0.100000      0.482609     Biso  1.000000 Au
   Au1466     1.0     0.621738      0.134783      0.447826     Biso  1.000000 Au
   Au1467     1.0     0.656521      0.134783      0.482609     Biso  1.000000 Au
   Au1468     1.0     0.691305      0.134783      0.447826     Biso  1.000000 Au
   Au1469     1.0     0.204349      0.204349      0.447826     Biso  1.000000 Au
   Au1470     1.0     0.239130      0.169565      0.447826     Biso  1.000000 Au
   Au1471     1.0     0.239130      0.204349      0.482609     Biso  1.000000 Au
   Au1472     1.0     0.273914      0.169565      0.482609     Biso  1.000000 Au
   Au1473     1.0     0.273914      0.204349      0.447826     Biso  1.000000 Au
   Au1474     1.0     0.308695      0.169565      0.447826     Biso  1.000000 Au
   Au1475     1.0     0.308695      0.204349      0.482609     Biso  1.000000 Au
   Au1476     1.0     0.343479      0.169565      0.482609     Biso  1.000000 Au
   Au1477     1.0     0.343479      0.204349      0.447826     Biso  1.000000 Au
   Au1478     1.0     0.378261      0.169565      0.447826     Biso  1.000000 Au
   Au1479     1.0     0.378261      0.204349      0.482609     Biso  1.000000 Au
   Au1480     1.0     0.413044      0.169565      0.482609     Biso  1.000000 Au
   Au1481     1.0     0.413044      0.204349      0.447826     Biso  1.000000 Au
   Au1482     1.0     0.447826      0.169565      0.447826     Biso  1.000000 Au
   Au1483     1.0     0.447826      0.204349      0.482609     Biso  1.000000 Au
   Au1484     1.0     0.482609      0.169565      0.482609     Biso  1.000000 Au
   Au1485     1.0     0.482609      0.204349      0.447826     Biso  1.000000 Au
   Au1486     1.0     0.517391      0.169565      0.447826     Biso  1.000000 Au
   Au1487     1.0     0.517391      0.204349      0.482609     Biso  1.000000 Au
   Au1488     1.0     0.552174      0.169565      0.482609     Biso  1.000000 Au
   Au1489     1.0     0.552174      0.204349      0.447826     Biso  1.000000 Au
   Au1490     1.0     0.586956      0.169565      0.447826     Biso  1.000000 Au
   Au1491     1.0     0.586956      0.204349      0.482609     Biso  1.000000 Au
   Au1492     1.0     0.621738      0.169565      0.482609     Biso  1.000000 Au
   Au1493     1.0     0.621738      0.204349      0.447826     Biso  1.000000 Au
   Au1494     1.0     0.656521      0.169565      0.447826     Biso  1.000000 Au
   Au1495     1.0     0.656521      0.204349      0.482609     Biso  1.000000 Au
   Au1496     1.0     0.691305      0.169565      0.482609     Biso  1.000000 Au
   Au1497     1.0     0.691305      0.204349      0.447826     Biso  1.000000 Au
   Au1498     1.0     0.726086      0.169565      0.447826     Biso  1.000000 Au
   Au1499     1.0     0.726086      0.204349      0.482609     Biso  1.000000 Au
   Au1500     1.0     0.760870      0.169565      0.482609     Biso  1.000000 Au
   Au1501     1.0     0.760870      0.204349      0.447826     Biso  1.000000 Au
   Au1502     1.0     0.795651      0.204349      0.482609     Biso  1.000000 Au
   Au1503     1.0     0.169565      0.239130      0.447826     Biso  1.000000 Au
   Au1504     1.0     0.169565      0.273914      0.482609     Biso  1.000000 Au
   Au1505     1.0     0.204349      0.239130      0.482609     Biso  1.000000 Au
   Au1506     1.0     0.204349      0.273914      0.447826     Biso  1.000000 Au
   Au1507     1.0     0.239130      0.239130      0.447826     Biso  1.000000 Au
   Au1508     1.0     0.239130      0.273914      0.482609     Biso  1.000000 Au
   Au1509     1.0     0.273914      0.239130      0.482609     Biso  1.000000 Au
   Au1510     1.0     0.273914      0.273914      0.447826     Biso  1.000000 Au
   Au1511     1.0     0.308695      0.239130      0.447826     Biso  1.000000 Au
   Au1512     1.0     0.308695      0.273914      0.482609     Biso  1.000000 Au
   Au1513     1.0     0.343479      0.239130      0.482609     Biso  1.000000 Au
   Au1514     1.0     0.343479      0.273914      0.447826     Biso  1.000000 Au
   Au1515     1.0     0.378261      0.239130      0.447826     Biso  1.000000 Au
   Au1516     1.0     0.378261      0.273914      0.482609     Biso  1.000000 Au
   Au1517     1.0     0.413044      0.239130      0.482609     Biso  1.000000 Au
   Au1518     1.0     0.413044      0.273914      0.447826     Biso  1.000000 Au
   Au1519     1.0     0.447826      0.239130      0.447826     Biso  1.000000 Au
   Au1520     1.0     0.447826      0.273914      0.482609     Biso  1.000000 Au
   Au1521     1.0     0.482609      0.239130      0.482609     Biso  1.000000 Au
   Au1522     1.0     0.482609      0.273914      0.447826     Biso  1.000000 Au
   Au1523     1.0     0.517391      0.239130      0.447826     Biso  1.000000 Au
   Au1524     1.0     0.517391      0.273914      0.482609     Biso  1.000000 Au
   Au1525     1.0     0.552174      0.239130      0.482609     Biso  1.000000 Au
   Au1526     1.0     0.552174      0.273914      0.447826     Biso  1.000000 Au
   Au1527     1.0     0.586956      0.239130      0.447826     Biso  1.000000 Au
   Au1528     1.0     0.586956      0.273914      0.482609     Biso  1.000000 Au
   Au1529     1.0     0.621738      0.239130      0.482609     Biso  1.000000 Au
   Au1530     1.0     0.621738      0.273914      0.447826     Biso  1.000000 Au
   Au1531     1.0     0.656521      0.239130      0.447826     Biso  1.000000 Au
   Au1532     1.0     0.656521      0.273914      0.482609     Biso  1.000000 Au
   Au1533     1.0     0.691305      0.239130      0.482609     Biso  1.000000 Au
   Au1534     1.0     0.691305      0.273914      0.447826     Biso  1.000000 Au
   Au1535     1.0     0.726086      0.239130      0.447826     Biso  1.000000 Au
   Au1536     1.0     0.726086      0.273914      0.482609     Biso  1.000000 Au
   Au1537     1.0     0.760870      0.239130      0.482609     Biso  1.000000 Au
   Au1538     1.0     0.760870      0.273914      0.447826     Biso  1.000000 Au
   Au1539     1.0     0.795651      0.239130      0.447826     Biso  1.000000 Au
   Au1540     1.0     0.795651      0.273914      0.482609     Biso  1.000000 Au
   Au1541     1.0     0.830435      0.239130      0.482609     Biso  1.000000 Au
   Au1542     1.0     0.830435      0.273914      0.447826     Biso  1.000000 Au
   Au1543     1.0     0.134783      0.308695      0.482609     Biso  1.000000 Au
   Au1544     1.0     0.134783      0.343479      0.447826     Biso  1.000000 Au
   Au1545     1.0     0.169565      0.308695      0.447826     Biso  1.000000 Au
   Au1546     1.0     0.169565      0.343479      0.482609     Biso  1.000000 Au
   Au1547     1.0     0.204349      0.308695      0.482609     Biso  1.000000 Au
   Au1548     1.0     0.204349      0.343479      0.447826     Biso  1.000000 Au
   Au1549     1.0     0.239130      0.308695      0.447826     Biso  1.000000 Au
   Au1550     1.0     0.239130      0.343479      0.482609     Biso  1.000000 Au
   Au1551     1.0     0.273914      0.308695      0.482609     Biso  1.000000 Au
   Au1552     1.0     0.273914      0.343479      0.447826     Biso  1.000000 Au
   Au1553     1.0     0.308695      0.308695      0.447826     Biso  1.000000 Au
   Au1554     1.0     0.308695      0.343479      0.482609     Biso  1.000000 Au
   Au1555     1.0     0.343479      0.308695      0.482609     Biso  1.000000 Au
   Au1556     1.0     0.343479      0.343479      0.447826     Biso  1.000000 Au
   Au1557     1.0     0.378261      0.308695      0.447826     Biso  1.000000 Au
   Au1558     1.0     0.378261      0.343479      0.482609     Biso  1.000000 Au
   Au1559     1.0     0.413044      0.308695      0.482609     Biso  1.000000 Au
   Au1560     1.0     0.413044      0.343479      0.447826     Biso  1.000000 Au
   Au1561     1.0     0.447826      0.308695      0.447826     Biso  1.000000 Au
   Au1562     1.0     0.447826      0.343479      0.482609     Biso  1.000000 Au
   Au1563     1.0     0.482609      0.308695      0.482609     Biso  1.000000 Au
   Au1564     1.0     0.482609      0.343479      0.447826     Biso  1.000000 Au
   Au1565     1.0     0.517391      0.308695      0.447826     Biso  1.000000 Au
   Au1566     1.0     0.517391      0.343479      0.482609     Biso  1.000000 Au
   Au1567     1.0     0.552174      0.308695      0.482609     Biso  1.000000 Au
   Au1568     1.0     0.552174      0.343479      0.447826     Biso  1.000000 Au
   Au1569     1.0     0.586956      0.308695      0.447826     Biso  1.000000 Au
   Au1570     1.0     0.586956      0.343479      0.482609     Biso  1.000000 Au
   Au1571     1.0     0.621738      0.308695      0.482609     Biso  1.000000 Au
   Au1572     1.0     0.621738      0.343479      0.447826     Biso  1.000000 Au
   Au1573     1.0     0.656521      0.308695      0.447826     Biso  1.000000 Au
   Au1574     1.0     0.656521      0.343479      0.482609     Biso  1.000000 Au
   Au1575     1.0     0.691305      0.308695      0.482609     Biso  1.000000 Au
   Au1576     1.0     0.691305      0.343479      0.447826     Biso  1.000000 Au
   Au1577     1.0     0.726086      0.308695      0.447826     Biso  1.000000 Au
   Au1578     1.0     0.726086      0.343479      0.482609     Biso  1.000000 Au
   Au1579     1.0     0.760870      0.308695      0.482609     Biso  1.000000 Au
   Au1580     1.0     0.760870      0.343479      0.447826     Biso  1.000000 Au
   Au1581     1.0     0.795651      0.308695      0.447826     Biso  1.000000 Au
   Au1582     1.0     0.795651      0.343479      0.482609     Biso  1.000000 Au
   Au1583     1.0     0.830435      0.308695      0.482609     Biso  1.000000 Au
   Au1584     1.0     0.830435      0.343479      0.447826     Biso  1.000000 Au
   Au1585     1.0     0.865217      0.308695      0.447826     Biso  1.000000 Au
   Au1586     1.0     0.865217      0.343479      0.482609     Biso  1.000000 Au
   Au1587     1.0     0.100000      0.378261      0.447826     Biso  1.000000 Au
   Au1588     1.0     0.100000      0.413044      0.482609     Biso  1.000000 Au
   Au1589     1.0     0.134783      0.378261      0.482609     Biso  1.000000 Au
   Au1590     1.0     0.134783      0.413044      0.447826     Biso  1.000000 Au
   Au1591     1.0     0.169565      0.378261      0.447826     Biso  1.000000 Au
   Au1592     1.0     0.169565      0.413044      0.482609     Biso  1.000000 Au
   Au1593     1.0     0.204349      0.378261      0.482609     Biso  1.000000 Au
   Au1594     1.0     0.204349      0.413044      0.447826     Biso  1.000000 Au
   Au1595     1.0     0.239130      0.378261      0.447826     Biso  1.000000 Au
   Au1596     1.0     0.239130      0.413044      0.482609     Biso  1.000000 Au
   Au1597     1.0     0.273914      0.378261      0.482609     Biso  1.000000 Au
   Au1598     1.0     0.273914      0.413044      0.447826     Biso  1.000000 Au
   Au1599     1.0     0.308695      0.378261      0.447826     Biso  1.000000 Au
   Au1600     1.0     0.308695      0.413044      0.482609     Biso  1.000000 Au
   Au1601     1.0     0.343479      0.378261      0.482609     Biso  1.000000 Au
   Au1602     1.0     0.343479      0.413044      0.447826     Biso  1.000000 Au
   Au1603     1.0     0.378261      0.378261      0.447826     Biso  1.000000 Au
   Au1604     1.0     0.378261      0.413044      0.482609     Biso  1.000000 Au
   Au1605     1.0     0.413044      0.378261      0.482609     Biso  1.000000 Au
   Au1606     1.0     0.413044      0.413044      0.447826     Biso  1.000000 Au
   Au1607     1.0     0.447826      0.378261      0.447826     Biso  1.000000 Au
   Au1608     1.0     0.447826      0.413044      0.482609     Biso  1.000000 Au
   Au1609     1.0     0.482609      0.378261      0.482609     Biso  1.000000 Au
   Au1610     1.0     0.482609      0.413044      0.447826     Biso  1.000000 Au
   Au1611     1.0     0.517391      0.378261      0.447826     Biso  1.000000 Au
   Au1612     1.0     0.517391      0.413044      0.482609     Biso  1.000000 Au
   Au1613     1.0     0.552174      0.378261      0.482609     Biso  1.000000 Au
   Au1614     1.0     0.552174      0.413044      0.447826     Biso  1.000000 Au
   Au1615     1.0     0.586956      0.378261      0.447826     Biso  1.000000 Au
   Au1616     1.0     0.586956      0.413044      0.482609     Biso  1.000000 Au
   Au1617     1.0     0.621738      0.378261      0.482609     Biso  1.000000 Au
   Au1618     1.0     0.621738      0.413044      0.447826     Biso  1.000000 Au
   Au1619     1.0     0.656521      0.378261      0.447826     Biso  1.000000 Au
   Au1620     1.0     0.656521      0.413044      0.482609     Biso  1.000000 Au
   Au1621     1.0     0.691305      0.378261      0.482609     Biso  1.000000 Au
   Au1622     1.0     0.691305      0.413044      0.447826     Biso  1.000000 Au
   Au1623     1.0     0.726086      0.378261      0.447826     Biso  1.000000 Au
   Au1624     1.0     0.726086      0.413044      0.482609     Biso  1.000000 Au
   Au1625     1.0     0.760870      0.378261      0.482609     Biso  1.000000 Au
   Au1626     1.0     0.760870      0.413044      0.447826     Biso  1.000000 Au
   Au1627     1.0     0.795651      0.378261      0.447826     Biso  1.000000 Au
   Au1628     1.0     0.795651      0.413044      0.482609     Biso  1.000000 Au
   Au1629     1.0     0.830435      0.378261      0.482609     Biso  1.000000 Au
   Au1630     1.0     0.830435      0.413044      0.447826     Biso  1.000000 Au
   Au1631     1.0     0.865217      0.378261      0.447826     Biso  1.000000 Au
   Au1632     1.0     0.865217      0.413044      0.482609     Biso  1.000000 Au
   Au1633     1.0     0.900000      0.378261      0.482609     Biso  1.000000 Au
   Au1634     1.0     0.900000      0.413044      0.447826     Biso  1.000000 Au
   Au1635     1.0     0.100000      0.447826      0.447826     Biso  1.000000 Au
   Au1636     1.0     0.100000      0.482609      0.482609     Biso  1.000000 Au
   Au1637     1.0     0.134783      0.447826      0.482609     Biso  1.000000 Au
   Au1638     1.0     0.134783      0.482609      0.447826     Biso  1.000000 Au
   Au1639     1.0     0.169565      0.447826      0.447826     Biso  1.000000 Au
   Au1640     1.0     0.169565      0.482609      0.482609     Biso  1.000000 Au
   Au1641     1.0     0.204349      0.447826      0.482609     Biso  1.000000 Au
   Au1642     1.0     0.204349      0.482609      0.447826     Biso  1.000000 Au
   Au1643     1.0     0.239130      0.447826      0.447826     Biso  1.000000 Au
   Au1644     1.0     0.239130      0.482609      0.482609     Biso  1.000000 Au
   Au1645     1.0     0.273914      0.447826      0.482609     Biso  1.000000 Au
   Au1646     1.0     0.273914      0.482609      0.447826     Biso  1.000000 Au
   Au1647     1.0     0.308695      0.447826      0.447826     Biso  1.000000 Au
   Au1648     1.0     0.308695      0.482609      0.482609     Biso  1.000000 Au
   Au1649     1.0     0.343479      0.447826      0.482609     Biso  1.000000 Au
   Au1650     1.0     0.343479      0.482609      0.447826     Biso  1.000000 Au
   Au1651     1.0     0.378261      0.447826      0.447826     Biso  1.000000 Au
   Au1652     1.0     0.378261      0.482609      0.482609     Biso  1.000000 Au
   Au1653     1.0     0.413044      0.447826      0.482609     Biso  1.000000 Au
   Au1654     1.0     0.413044      0.482609      0.447826     Biso  1.000000 Au
   Au1655     1.0     0.447826      0.447826      0.447826     Biso  1.000000 Au
   Au1656     1.0     0.447826      0.482609      0.482609     Biso  1.000000 Au
   Au1657     1.0     0.482609      0.447826      0.482609     Biso  1.000000 Au
   Au1658     1.0     0.482609      0.482609      0.447826     Biso  1.000000 Au
   Au1659     1.0     0.517391      0.447826      0.447826     Biso  1.000000 Au
   Au1660     1.0     0.517391      0.482609      0.482609     Biso  1.000000 Au
   Au1661     1.0     0.552174      0.447826      0.482609     Biso  1.000000 Au
   Au1662     1.0     0.552174      0.482609      0.447826     Biso  1.000000 Au
   Au1663     1.0     0.586956      0.447826      0.447826     Biso  1.000000 Au
   Au1664     1.0     0.586956      0.482609      0.482609     Biso  1.000000 Au
   Au1665     1.0     0.621738      0.447826      0.482609     Biso  1.000000 Au
   Au1666     1.0     0.621738      0.482609      0.447826     Biso  1.000000 Au
   Au1667     1.0     0.656521      0.447826      0.447826     Biso  1.000000 Au
   Au1668     1.0     0.656521      0.482609      0.482609     Biso  1.000000 Au
   Au1669     1.0     0.691305      0.447826      0.482609     Biso  1.000000 Au
   Au1670     1.0     0.691305      0.482609      0.447826     Biso  1.000000 Au
   Au1671     1.0     0.726086      0.447826      0.447826     Biso  1.000000 Au
   Au1672     1.0     0.726086      0.482609      0.482609     Biso  1.000000 Au
   Au1673     1.0     0.760870      0.447826      0.482609     Biso  1.000000 Au
   Au1674     1.0     0.760870      0.482609      0.447826     Biso  1.000000 Au
   Au1675     1.0     0.795651      0.447826      0.447826     Biso  1.000000 Au
   Au1676     1.0     0.795651      0.482609      0.482609     Biso  1.000000 Au
   Au1677     1.0     0.830435      0.447826      0.482609     Biso  1.000000 Au
   Au1678     1.0     0.830435      0.482609      0.447826     Biso  1.000000 Au
   Au1679     1.0     0.865217      0.447826      0.447826     Biso  1.000000 Au
   Au1680     1.0     0.865217      0.482609      0.482609     Biso  1.000000 Au
   Au1681     1.0     0.900000      0.447826      0.482609     Biso  1.000000 Au
   Au1682     1.0     0.900000      0.482609      0.447826     Biso  1.000000 Au
   Au1683     1.0     0.100000      0.517391      0.447826     Biso  1.000000 Au
   Au1684     1.0     0.100000      0.552174      0.482609     Biso  1.000000 Au
   Au1685     1.0     0.134783      0.517391      0.482609     Biso  1.000000 Au
   Au1686     1.0     0.134783      0.552174      0.447826     Biso  1.000000 Au
   Au1687     1.0     0.169565      0.517391      0.447826     Biso  1.000000 Au
   Au1688     1.0     0.169565      0.552174      0.482609     Biso  1.000000 Au
   Au1689     1.0     0.204349      0.517391      0.482609     Biso  1.000000 Au
   Au1690     1.0     0.204349      0.552174      0.447826     Biso  1.000000 Au
   Au1691     1.0     0.239130      0.517391      0.447826     Biso  1.000000 Au
   Au1692     1.0     0.239130      0.552174      0.482609     Biso  1.000000 Au
   Au1693     1.0     0.273914      0.517391      0.482609     Biso  1.000000 Au
   Au1694     1.0     0.273914      0.552174      0.447826     Biso  1.000000 Au
   Au1695     1.0     0.308695      0.517391      0.447826     Biso  1.000000 Au
   Au1696     1.0     0.308695      0.552174      0.482609     Biso  1.000000 Au
   Au1697     1.0     0.343479      0.517391      0.482609     Biso  1.000000 Au
   Au1698     1.0     0.343479      0.552174      0.447826     Biso  1.000000 Au
   Au1699     1.0     0.378261      0.517391      0.447826     Biso  1.000000 Au
   Au1700     1.0     0.378261      0.552174      0.482609     Biso  1.000000 Au
   Au1701     1.0     0.413044      0.517391      0.482609     Biso  1.000000 Au
   Au1702     1.0     0.413044      0.552174      0.447826     Biso  1.000000 Au
   Au1703     1.0     0.447826      0.517391      0.447826     Biso  1.000000 Au
   Au1704     1.0     0.447826      0.552174      0.482609     Biso  1.000000 Au
   Au1705     1.0     0.482609      0.517391      0.482609     Biso  1.000000 Au
   Au1706     1.0     0.482609      0.552174      0.447826     Biso  1.000000 Au
   Au1707     1.0     0.517391      0.517391      0.447826     Biso  1.000000 Au
   Au1708     1.0     0.517391      0.552174      0.482609     Biso  1.000000 Au
   Au1709     1.0     0.552174      0.517391      0.482609     Biso  1.000000 Au
   Au1710     1.0     0.552174      0.552174      0.447826     Biso  1.000000 Au
   Au1711     1.0     0.586956      0.517391      0.447826     Biso  1.000000 Au
   Au1712     1.0     0.586956      0.552174      0.482609     Biso  1.000000 Au
   Au1713     1.0     0.621738      0.517391      0.482609     Biso  1.000000 Au
   Au1714     1.0     0.621738      0.552174      0.447826     Biso  1.000000 Au
   Au1715     1.0     0.656521      0.517391      0.447826     Biso  1.000000 Au
   Au1716     1.0     0.656521      0.552174      0.482609     Biso  1.000000 Au
   Au1717     1.0     0.691305      0.517391      0.482609     Biso  1.000000 Au
   Au1718     1.0     0.691305      0.552174      0.447826     Biso  1.000000 Au
   Au1719     1.0     0.726086      0.517391      0.447826     Biso  1.000000 Au
   Au1720     1.0     0.726086      0.552174      0.482609     Biso  1.000000 Au
   Au1721     1.0     0.760870      0.517391      0.482609     Biso  1.000000 Au
   Au1722     1.0     0.760870      0.552174      0.447826     Biso  1.000000 Au
   Au1723     1.0     0.795651      0.517391      0.447826     Biso  1.000000 Au
   Au1724     1.0     0.795651      0.552174      0.482609     Biso  1.000000 Au
   Au1725     1.0     0.830435      0.517391      0.482609     Biso  1.000000 Au
   Au1726     1.0     0.830435      0.552174      0.447826     Biso  1.000000 Au
   Au1727     1.0     0.865217      0.517391      0.447826     Biso  1.000000 Au
   Au1728     1.0     0.865217      0.552174      0.482609     Biso  1.000000 Au
   Au1729     1.0     0.900000      0.517391      0.482609     Biso  1.000000 Au
   Au1730     1.0     0.900000      0.552174      0.447826     Biso  1.000000 Au
   Au1731     1.0     0.100000      0.586956      0.447826     Biso  1.000000 Au
   Au1732     1.0     0.100000      0.621738      0.482609     Biso  1.000000 Au
   Au1733     1.0     0.134783      0.586956      0.482609     Biso  1.000000 Au
   Au1734     1.0     0.134783      0.621738      0.447826     Biso  1.000000 Au
   Au1735     1.0     0.169565      0.586956      0.447826     Biso  1.000000 Au
   Au1736     1.0     0.169565      0.621738      0.482609     Biso  1.000000 Au
   Au1737     1.0     0.204349      0.586956      0.482609     Biso  1.000000 Au
   Au1738     1.0     0.204349      0.621738      0.447826     Biso  1.000000 Au
   Au1739     1.0     0.239130      0.586956      0.447826     Biso  1.000000 Au
   Au1740     1.0     0.239130      0.621738      0.482609     Biso  1.000000 Au
   Au1741     1.0     0.273914      0.586956      0.482609     Biso  1.000000 Au
   Au1742     1.0     0.273914      0.621738      0.447826     Biso  1.000000 Au
   Au1743     1.0     0.308695      0.586956      0.447826     Biso  1.000000 Au
   Au1744     1.0     0.308695      0.621738      0.482609     Biso  1.000000 Au
   Au1745     1.0     0.343479      0.586956      0.482609     Biso  1.000000 Au
   Au1746     1.0     0.343479      0.621738      0.447826     Biso  1.000000 Au
   Au1747     1.0     0.378261      0.586956      0.447826     Biso  1.000000 Au
   Au1748     1.0     0.378261      0.621738      0.482609     Biso  1.000000 Au
   Au1749     1.0     0.413044      0.586956      0.482609     Biso  1.000000 Au
   Au1750     1.0     0.413044      0.621738      0.447826     Biso  1.000000 Au
   Au1751     1.0     0.447826      0.586956      0.447826     Biso  1.000000 Au
   Au1752     1.0     0.447826      0.621738      0.482609     Biso  1.000000 Au
   Au1753     1.0     0.482609      0.586956      0.482609     Biso  1.000000 Au
   Au1754     1.0     0.482609      0.621738      0.447826     Biso  1.000000 Au
   Au1755     1.0     0.517391      0.586956      0.447826     Biso  1.000000 Au
   Au1756     1.0     0.517391      0.621738      0.482609     Biso  1.000000 Au
   Au1757     1.0     0.552174      0.586956      0.482609     Biso  1.000000 Au
   Au1758     1.0     0.552174      0.621738      0.447826     Biso  1.000000 Au
   Au1759     1.0     0.586956      0.586956      0.447826     Biso  1.000000 Au
   Au1760     1.0     0.586956      0.621738      0.482609     Biso  1.000000 Au
   Au1761     1.0     0.621738      0.586956      0.482609     Biso  1.000000 Au
   Au1762     1.0     0.621738      0.621738      0.447826     Biso  1.000000 Au
   Au1763     1.0     0.656521      0.586956      0.447826     Biso  1.000000 Au
   Au1764     1.0     0.656521      0.621738      0.482609     Biso  1.000000 Au
   Au1765     1.0     0.691305      0.586956      0.482609     Biso  1.000000 Au
   Au1766     1.0     0.691305      0.621738      0.447826     Biso  1.000000 Au
   Au1767     1.0     0.726086      0.586956      0.447826     Biso  1.000000 Au
   Au1768     1.0     0.726086      0.621738      0.482609     Biso  1.000000 Au
   Au1769     1.0     0.760870      0.586956      0.482609     Biso  1.000000 Au
   Au1770     1.0     0.760870      0.621738      0.447826     Biso  1.000000 Au
   Au1771     1.0     0.795651      0.586956      0.447826     Biso  1.000000 Au
   Au1772     1.0     0.795651      0.621738      0.482609     Biso  1.000000 Au
   Au1773     1.0     0.830435      0.586956      0.482609     Biso  1.000000 Au
   Au1774     1.0     0.830435      0.621738      0.447826     Biso  1.000000 Au
   Au1775     1.0     0.865217      0.586956      0.447826     Biso  1.000000 Au
   Au1776     1.0     0.865217      0.621738      0.482609     Biso  1.000000 Au
   Au1777     1.0     0.900000      0.586956      0.482609     Biso  1.000000 Au
   Au1778     1.0     0.900000      0.621738      0.447826     Biso  1.000000 Au
   Au1779     1.0     0.134783      0.656521      0.482609     Biso  1.000000 Au
   Au1780     1.0     0.134783      0.691305      0.447826     Biso  1.000000 Au
   Au1781     1.0     0.169565      0.656521      0.447826     Biso  1.000000 Au
   Au1782     1.0     0.169565      0.691305      0.482609     Biso  1.000000 Au
   Au1783     1.0     0.204349      0.656521      0.482609     Biso  1.000000 Au
   Au1784     1.0     0.204349      0.691305      0.447826     Biso  1.000000 Au
   Au1785     1.0     0.239130      0.656521      0.447826     Biso  1.000000 Au
   Au1786     1.0     0.239130      0.691305      0.482609     Biso  1.000000 Au
   Au1787     1.0     0.273914      0.656521      0.482609     Biso  1.000000 Au
   Au1788     1.0     0.273914      0.691305      0.447826     Biso  1.000000 Au
   Au1789     1.0     0.308695      0.656521      0.447826     Biso  1.000000 Au
   Au1790     1.0     0.308695      0.691305      0.482609     Biso  1.000000 Au
   Au1791     1.0     0.343479      0.656521      0.482609     Biso  1.000000 Au
   Au1792     1.0     0.343479      0.691305      0.447826     Biso  1.000000 Au
   Au1793     1.0     0.378261      0.656521      0.447826     Biso  1.000000 Au
   Au1794     1.0     0.378261      0.691305      0.482609     Biso  1.000000 Au
   Au1795     1.0     0.413044      0.656521      0.482609     Biso  1.000000 Au
   Au1796     1.0     0.413044      0.691305      0.447826     Biso  1.000000 Au
   Au1797     1.0     0.447826      0.656521      0.447826     Biso  1.000000 Au
   Au1798     1.0     0.447826      0.691305      0.482609     Biso  1.000000 Au
   Au1799     1.0     0.482609      0.656521      0.482609     Biso  1.000000 Au
   Au1800     1.0     0.482609      0.691305      0.447826     Biso  1.000000 Au
   Au1801     1.0     0.517391      0.656521      0.447826     Biso  1.000000 Au
   Au1802     1.0     0.517391      0.691305      0.482609     Biso  1.000000 Au
   Au1803     1.0     0.552174      0.656521      0.482609     Biso  1.000000 Au
   Au1804     1.0     0.552174      0.691305      0.447826     Biso  1.000000 Au
   Au1805     1.0     0.586956      0.656521      0.447826     Biso  1.000000 Au
   Au1806     1.0     0.586956      0.691305      0.482609     Biso  1.000000 Au
   Au1807     1.0     0.621738      0.656521      0.482609     Biso  1.000000 Au
   Au1808     1.0     0.621738      0.691305      0.447826     Biso  1.000000 Au
   Au1809     1.0     0.656521      0.656521      0.447826     Biso  1.000000 Au
   Au1810     1.0     0.656521      0.691305      0.482609     Biso  1.000000 Au
   Au1811     1.0     0.691305      0.656521      0.482609     Biso  1.000000 Au
   Au1812     1.0     0.691305      0.691305      0.447826     Biso  1.000000 Au
   Au1813     1.0     0.726086      0.656521      0.447826     Biso  1.000000 Au
   Au1814     1.0     0.726086      0.691305      0.482609     Biso  1.000000 Au
   Au1815     1.0     0.760870      0.656521      0.482609     Biso  1.000000 Au
   Au1816     1.0     0.760870      0.691305      0.447826     Biso  1.000000 Au
   Au1817     1.0     0.795651      0.656521      0.447826     Biso  1.000000 Au
   Au1818     1.0     0.795651      0.691305      0.482609     Biso  1.000000 Au
   Au1819     1.0     0.830435      0.656521      0.482609     Biso  1.000000 Au
   Au1820     1.0     0.830435      0.691305      0.447826     Biso  1.000000 Au
   Au1821     1.0     0.865217      0.656521      0.447826     Biso  1.000000 Au
   Au1822     1.0     0.865217      0.691305      0.482609     Biso  1.000000 Au
   Au1823     1.0     0.169565      0.726086      0.447826     Biso  1.000000 Au
   Au1824     1.0     0.169565      0.760870      0.482609     Biso  1.000000 Au
   Au1825     1.0     0.204349      0.726086      0.482609     Biso  1.000000 Au
   Au1826     1.0     0.204349      0.760870      0.447826     Biso  1.000000 Au
   Au1827     1.0     0.239130      0.726086      0.447826     Biso  1.000000 Au
   Au1828     1.0     0.239130      0.760870      0.482609     Biso  1.000000 Au
   Au1829     1.0     0.273914      0.726086      0.482609     Biso  1.000000 Au
   Au1830     1.0     0.273914      0.760870      0.447826     Biso  1.000000 Au
   Au1831     1.0     0.308695      0.726086      0.447826     Biso  1.000000 Au
   Au1832     1.0     0.308695      0.760870      0.482609     Biso  1.000000 Au
   Au1833     1.0     0.343479      0.726086      0.482609     Biso  1.000000 Au
   Au1834     1.0     0.343479      0.760870      0.447826     Biso  1.000000 Au
   Au1835     1.0     0.378261      0.726086      0.447826     Biso  1.000000 Au
   Au1836     1.0     0.378261      0.760870      0.482609     Biso  1.000000 Au
   Au1837     1.0     0.413044      0.726086      0.482609     Biso  1.000000 Au
   Au1838     1.0     0.413044      0.760870      0.447826     Biso  1.000000 Au
   Au1839     1.0     0.447826      0.726086      0.447826     Biso  1.000000 Au
   Au1840     1.0     0.447826      0.760870      0.482609     Biso  1.000000 Au
   Au1841     1.0     0.482609      0.726086      0.482609     Biso  1.000000 Au
   Au1842     1.0     0.482609      0.760870      0.447826     Biso  1.000000 Au
   Au1843     1.0     0.517391      0.726086      0.447826     Biso  1.000000 Au
   Au1844     1.0     0.517391      0.760870      0.482609     Biso  1.000000 Au
   Au1845     1.0     0.552174      0.726086      0.482609     Biso  1.000000 Au
   Au1846     1.0     0.552174      0.760870      0.447826     Biso  1.000000 Au
   Au1847     1.0     0.586956      0.726086      0.447826     Biso  1.000000 Au
   Au1848     1.0     0.586956      0.760870      0.482609     Biso  1.000000 Au
   Au1849     1.0     0.621738      0.726086      0.482609     Biso  1.000000 Au
   Au1850     1.0     0.621738      0.760870      0.447826     Biso  1.000000 Au
   Au1851     1.0     0.656521      0.726086      0.447826     Biso  1.000000 Au
   Au1852     1.0     0.656521      0.760870      0.482609     Biso  1.000000 Au
   Au1853     1.0     0.691305      0.726086      0.482609     Biso  1.000000 Au
   Au1854     1.0     0.691305      0.760870      0.447826     Biso  1.000000 Au
   Au1855     1.0     0.726086      0.726086      0.447826     Biso  1.000000 Au
   Au1856     1.0     0.726086      0.760870      0.482609     Biso  1.000000 Au
   Au1857     1.0     0.760870      0.726086      0.482609     Biso  1.000000 Au
   Au1858     1.0     0.760870      0.760870      0.447826     Biso  1.000000 Au
   Au1859     1.0     0.795651      0.726086      0.447826     Biso  1.000000 Au
   Au1860     1.0     0.795651      0.760870      0.482609     Biso  1.000000 Au
   Au1861     1.0     0.830435      0.726086      0.482609     Biso  1.000000 Au
   Au1862     1.0     0.830435      0.760870      0.447826     Biso  1.000000 Au
   Au1863     1.0     0.204349      0.795651      0.482609     Biso  1.000000 Au
   Au1864     1.0     0.239130      0.795651      0.447826     Biso  1.000000 Au
   Au1865     1.0     0.239130      0.830435      0.482609     Biso  1.000000 Au
   Au1866     1.0     0.273914      0.795651      0.482609     Biso  1.000000 Au
   Au1867     1.0     0.273914      0.830435      0.447826     Biso  1.000000 Au
   Au1868     1.0     0.308695      0.795651      0.447826     Biso  1.000000 Au
   Au1869     1.0     0.308695      0.830435      0.482609     Biso  1.000000 Au
   Au1870     1.0     0.343479      0.795651      0.482609     Biso  1.000000 Au
   Au1871     1.0     0.343479      0.830435      0.447826     Biso  1.000000 Au
   Au1872     1.0     0.378261      0.795651      0.447826     Biso  1.000000 Au
   Au1873     1.0     0.378261      0.830435      0.482609     Biso  1.000000 Au
   Au1874     1.0     0.413044      0.795651      0.482609     Biso  1.000000 Au
   Au1875     1.0     0.413044      0.830435      0.447826     Biso  1.000000 Au
   Au1876     1.0     0.447826      0.795651      0.447826     Biso  1.000000 Au
   Au1877     1.0     0.447826      0.830435      0.482609     Biso  1.000000 Au
   Au1878     1.0     0.482609      0.795651      0.482609     Biso  1.000000 Au
   Au1879     1.0     0.482609      0.830435      0.447826     Biso  1.000000 Au
   Au1880     1.0     0.517391      0.795651      0.447826     Biso  1.000000 Au
   Au1881     1.0     0.517391      0.830435      0.482609     Biso  1.000000 Au
   Au1882     1.0     0.552174      0.795651      0.482609     Biso  1.000000 Au
   Au1883     1.0     0.552174      0.830435      0.447826     Biso  1.000000 Au
   Au1884     1.0     0.586956      0.795651      0.447826     Biso  1.000000 Au
   Au1885     1.0     0.586956      0.830435      0.482609     Biso  1.000000 Au
   Au1886     1.0     0.621738      0.795651      0.482609     Biso  1.000000 Au
   Au1887     1.0     0.621738      0.830435      0.447826     Biso  1.000000 Au
   Au1888     1.0     0.656521      0.795651      0.447826     Biso  1.000000 Au
   Au1889     1.0     0.656521      0.830435      0.482609     Biso  1.000000 Au
   Au1890     1.0     0.691305      0.795651      0.482609     Biso  1.000000 Au
   Au1891     1.0     0.691305      0.830435      0.447826     Biso  1.000000 Au
   Au1892     1.0     0.726086      0.795651      0.447826     Biso  1.000000 Au
   Au1893     1.0     0.726086      0.830435      0.482609     Biso  1.000000 Au
   Au1894     1.0     0.760870      0.795651      0.482609     Biso  1.000000 Au
   Au1895     1.0     0.760870      0.830435      0.447826     Biso  1.000000 Au
   Au1896     1.0     0.795651      0.795651      0.447826     Biso  1.000000 Au
   Au1897     1.0     0.308695      0.865217      0.447826     Biso  1.000000 Au
   Au1898     1.0     0.343479      0.865217      0.482609     Biso  1.000000 Au
   Au1899     1.0     0.378261      0.865217      0.447826     Biso  1.000000 Au
   Au1900     1.0     0.378261      0.900000      0.482609     Biso  1.000000 Au
   Au1901     1.0     0.413044      0.865217      0.482609     Biso  1.000000 Au
   Au1902     1.0     0.413044      0.900000      0.447826     Biso  1.000000 Au
   Au1903     1.0     0.447826      0.865217      0.447826     Biso  1.000000 Au
   Au1904     1.0     0.447826      0.900000      0.482609     Biso  1.000000 Au
   Au1905     1.0     0.482609      0.865217      0.482609     Biso  1.000000 Au
   Au1906     1.0     0.482609      0.900000      0.447826     Biso  1.000000 Au
   Au1907     1.0     0.517391      0.865217      0.447826     Biso  1.000000 Au
   Au1908     1.0     0.517391      0.900000      0.482609     Biso  1.000000 Au
   Au1909     1.0     0.552174      0.865217      0.482609     Biso  1.000000 Au
   Au1910     1.0     0.552174      0.900000      0.447826     Biso  1.000000 Au
   Au1911     1.0     0.586956      0.865217      0.447826     Biso  1.000000 Au
   Au1912     1.0     0.586956      0.900000      0.482609     Biso  1.000000 Au
   Au1913     1.0     0.621738      0.865217      0.482609     Biso  1.000000 Au
   Au1914     1.0     0.621738      0.900000      0.447826     Biso  1.000000 Au
   Au1915     1.0     0.656521      0.865217      0.447826     Biso  1.000000 Au
   Au1916     1.0     0.691305      0.865217      0.482609     Biso  1.000000 Au
   Au1917     1.0     0.308695      0.134783      0.552174     Biso  1.000000 Au
   Au1918     1.0     0.343479      0.134783      0.517391     Biso  1.000000 Au
   Au1919     1.0     0.378261      0.100000      0.517391     Biso  1.000000 Au
   Au1920     1.0     0.378261      0.134783      0.552174     Biso  1.000000 Au
   Au1921     1.0     0.413044      0.100000      0.552174     Biso  1.000000 Au
   Au1922     1.0     0.413044      0.134783      0.517391     Biso  1.000000 Au
   Au1923     1.0     0.447826      0.100000      0.517391     Biso  1.000000 Au
   Au1924     1.0     0.447826      0.134783      0.552174     Biso  1.000000 Au
   Au1925     1.0     0.482609      0.100000      0.552174     Biso  1.000000 Au
   Au1926     1.0     0.482609      0.134783      0.517391     Biso  1.000000 Au
   Au1927     1.0     0.517391      0.100000      0.517391     Biso  1.000000 Au
   Au1928     1.0     0.517391      0.134783      0.552174     Biso  1.000000 Au
   Au1929     1.0     0.552174      0.100000      0.552174     Biso  1.000000 Au
   Au1930     1.0     0.552174      0.134783      0.517391     Biso  1.000000 Au
   Au1931     1.0     0.586956      0.100000      0.517391     Biso  1.000000 Au
   Au1932     1.0     0.586956      0.134783      0.552174     Biso  1.000000 Au
   Au1933     1.0     0.621738      0.100000      0.552174     Biso  1.000000 Au
   Au1934     1.0     0.621738      0.134783      0.517391     Biso  1.000000 Au
   Au1935     1.0     0.656521      0.134783      0.552174     Biso  1.000000 Au
   Au1936     1.0     0.691305      0.134783      0.517391     Biso  1.000000 Au
   Au1937     1.0     0.204349      0.204349      0.517391     Biso  1.000000 Au
   Au1938     1.0     0.239130      0.169565      0.517391     Biso  1.000000 Au
   Au1939     1.0     0.239130      0.204349      0.552174     Biso  1.000000 Au
   Au1940     1.0     0.273914      0.169565      0.552174     Biso  1.000000 Au
   Au1941     1.0     0.273914      0.204349      0.517391     Biso  1.000000 Au
   Au1942     1.0     0.308695      0.169565      0.517391     Biso  1.000000 Au
   Au1943     1.0     0.308695      0.204349      0.552174     Biso  1.000000 Au
   Au1944     1.0     0.343479      0.169565      0.552174     Biso  1.000000 Au
   Au1945     1.0     0.343479      0.204349      0.517391     Biso  1.000000 Au
   Au1946     1.0     0.378261      0.169565      0.517391     Biso  1.000000 Au
   Au1947     1.0     0.378261      0.204349      0.552174     Biso  1.000000 Au
   Au1948     1.0     0.413044      0.169565      0.552174     Biso  1.000000 Au
   Au1949     1.0     0.413044      0.204349      0.517391     Biso  1.000000 Au
   Au1950     1.0     0.447826      0.169565      0.517391     Biso  1.000000 Au
   Au1951     1.0     0.447826      0.204349      0.552174     Biso  1.000000 Au
   Au1952     1.0     0.482609      0.169565      0.552174     Biso  1.000000 Au
   Au1953     1.0     0.482609      0.204349      0.517391     Biso  1.000000 Au
   Au1954     1.0     0.517391      0.169565      0.517391     Biso  1.000000 Au
   Au1955     1.0     0.517391      0.204349      0.552174     Biso  1.000000 Au
   Au1956     1.0     0.552174      0.169565      0.552174     Biso  1.000000 Au
   Au1957     1.0     0.552174      0.204349      0.517391     Biso  1.000000 Au
   Au1958     1.0     0.586956      0.169565      0.517391     Biso  1.000000 Au
   Au1959     1.0     0.586956      0.204349      0.552174     Biso  1.000000 Au
   Au1960     1.0     0.621738      0.169565      0.552174     Biso  1.000000 Au
   Au1961     1.0     0.621738      0.204349      0.517391     Biso  1.000000 Au
   Au1962     1.0     0.656521      0.169565      0.517391     Biso  1.000000 Au
   Au1963     1.0     0.656521      0.204349      0.552174     Biso  1.000000 Au
   Au1964     1.0     0.691305      0.169565      0.552174     Biso  1.000000 Au
   Au1965     1.0     0.691305      0.204349      0.517391     Biso  1.000000 Au
   Au1966     1.0     0.726086      0.169565      0.517391     Biso  1.000000 Au
   Au1967     1.0     0.726086      0.204349      0.552174     Biso  1.000000 Au
   Au1968     1.0     0.760870      0.169565      0.552174     Biso  1.000000 Au
   Au1969     1.0     0.760870      0.204349      0.517391     Biso  1.000000 Au
   Au1970     1.0     0.795651      0.204349      0.552174     Biso  1.000000 Au
   Au1971     1.0     0.169565      0.239130      0.517391     Biso  1.000000 Au
   Au1972     1.0     0.169565      0.273914      0.552174     Biso  1.000000 Au
   Au1973     1.0     0.204349      0.239130      0.552174     Biso  1.000000 Au
   Au1974     1.0     0.204349      0.273914      0.517391     Biso  1.000000 Au
   Au1975     1.0     0.239130      0.239130      0.517391     Biso  1.000000 Au
   Au1976     1.0     0.239130      0.273914      0.552174     Biso  1.000000 Au
   Au1977     1.0     0.273914      0.239130      0.552174     Biso  1.000000 Au
   Au1978     1.0     0.273914      0.273914      0.517391     Biso  1.000000 Au
   Au1979     1.0     0.308695      0.239130      0.517391     Biso  1.000000 Au
   Au1980     1.0     0.308695      0.273914      0.552174     Biso  1.000000 Au
   Au1981     1.0     0.343479      0.239130      0.552174     Biso  1.000000 Au
   Au1982     1.0     0.343479      0.273914      0.517391     Biso  1.000000 Au
   Au1983     1.0     0.378261      0.239130      0.517391     Biso  1.000000 Au
   Au1984     1.0     0.378261      0.273914      0.552174     Biso  1.000000 Au
   Au1985     1.0     0.413044      0.239130      0.552174     Biso  1.000000 Au
   Au1986     1.0     0.413044      0.273914      0.517391     Biso  1.000000 Au
   Au1987     1.0     0.447826      0.239130      0.517391     Biso  1.000000 Au
   Au1988     1.0     0.447826      0.273914      0.552174     Biso  1.000000 Au
   Au1989     1.0     0.482609      0.239130      0.552174     Biso  1.000000 Au
   Au1990     1.0     0.482609      0.273914      0.517391     Biso  1.000000 Au
   Au1991     1.0     0.517391      0.239130      0.517391     Biso  1.000000 Au
   Au1992     1.0     0.517391      0.273914      0.552174     Biso  1.000000 Au
   Au1993     1.0     0.552174      0.239130      0.552174     Biso  1.000000 Au
   Au1994     1.0     0.552174      0.273914      0.517391     Biso  1.000000 Au
   Au1995     1.0     0.586956      0.239130      0.517391     Biso  1.000000 Au
   Au1996     1.0     0.586956      0.273914      0.552174     Biso  1.000000 Au
   Au1997     1.0     0.621738      0.239130      0.552174     Biso  1.000000 Au
   Au1998     1.0     0.621738      0.273914      0.517391     Biso  1.000000 Au
   Au1999     1.0     0.656521      0.239130      0.517391     Biso  1.000000 Au
   Au2000     1.0     0.656521      0.273914      0.552174     Biso  1.000000 Au
   Au2001     1.0     0.691305      0.239130      0.552174     Biso  1.000000 Au
   Au2002     1.0     0.691305      0.273914      0.517391     Biso  1.000000 Au
   Au2003     1.0     0.726086      0.239130      0.517391     Biso  1.000000 Au
   Au2004     1.0     0.726086      0.273914      0.552174     Biso  1.000000 Au
   Au2005     1.0     0.760870      0.239130      0.552174     Biso  1.000000 Au
   Au2006     1.0     0.760870      0.273914      0.517391     Biso  1.000000 Au
   Au2007     1.0     0.795651      0.239130      0.517391     Biso  1.000000 Au
   Au2008     1.0     0.795651      0.273914      0.552174     Biso  1.000000 Au
   Au2009     1.0     0.830435      0.239130      0.552174     Biso  1.000000 Au
   Au2010     1.0     0.830435      0.273914      0.517391     Biso  1.000000 Au
   Au2011     1.0     0.134783      0.308695      0.552174     Biso  1.000000 Au
   Au2012     1.0     0.134783      0.343479      0.517391     Biso  1.000000 Au
   Au2013     1.0     0.169565      0.308695      0.517391     Biso  1.000000 Au
   Au2014     1.0     0.169565      0.343479      0.552174     Biso  1.000000 Au
   Au2015     1.0     0.204349      0.308695      0.552174     Biso  1.000000 Au
   Au2016     1.0     0.204349      0.343479      0.517391     Biso  1.000000 Au
   Au2017     1.0     0.239130      0.308695      0.517391     Biso  1.000000 Au
   Au2018     1.0     0.239130      0.343479      0.552174     Biso  1.000000 Au
   Au2019     1.0     0.273914      0.308695      0.552174     Biso  1.000000 Au
   Au2020     1.0     0.273914      0.343479      0.517391     Biso  1.000000 Au
   Au2021     1.0     0.308695      0.308695      0.517391     Biso  1.000000 Au
   Au2022     1.0     0.308695      0.343479      0.552174     Biso  1.000000 Au
   Au2023     1.0     0.343479      0.308695      0.552174     Biso  1.000000 Au
   Au2024     1.0     0.343479      0.343479      0.517391     Biso  1.000000 Au
   Au2025     1.0     0.378261      0.308695      0.517391     Biso  1.000000 Au
   Au2026     1.0     0.378261      0.343479      0.552174     Biso  1.000000 Au
   Au2027     1.0     0.413044      0.308695      0.552174     Biso  1.000000 Au
   Au2028     1.0     0.413044      0.343479      0.517391     Biso  1.000000 Au
   Au2029     1.0     0.447826      0.308695      0.517391     Biso  1.000000 Au
   Au2030     1.0     0.447826      0.343479      0.552174     Biso  1.000000 Au
   Au2031     1.0     0.482609      0.308695      0.552174     Biso  1.000000 Au
   Au2032     1.0     0.482609      0.343479      0.517391     Biso  1.000000 Au
   Au2033     1.0     0.517391      0.308695      0.517391     Biso  1.000000 Au
   Au2034     1.0     0.517391      0.343479      0.552174     Biso  1.000000 Au
   Au2035     1.0     0.552174      0.308695      0.552174     Biso  1.000000 Au
   Au2036     1.0     0.552174      0.343479      0.517391     Biso  1.000000 Au
   Au2037     1.0     0.586956      0.308695      0.517391     Biso  1.000000 Au
   Au2038     1.0     0.586956      0.343479      0.552174     Biso  1.000000 Au
   Au2039     1.0     0.621738      0.308695      0.552174     Biso  1.000000 Au
   Au2040     1.0     0.621738      0.343479      0.517391     Biso  1.000000 Au
   Au2041     1.0     0.656521      0.308695      0.517391     Biso  1.000000 Au
   Au2042     1.0     0.656521      0.343479      0.552174     Biso  1.000000 Au
   Au2043     1.0     0.691305      0.308695      0.552174     Biso  1.000000 Au
   Au2044     1.0     0.691305      0.343479      0.517391     Biso  1.000000 Au
   Au2045     1.0     0.726086      0.308695      0.517391     Biso  1.000000 Au
   Au2046     1.0     0.726086      0.343479      0.552174     Biso  1.000000 Au
   Au2047     1.0     0.760870      0.308695      0.552174     Biso  1.000000 Au
   Au2048     1.0     0.760870      0.343479      0.517391     Biso  1.000000 Au
   Au2049     1.0     0.795651      0.308695      0.517391     Biso  1.000000 Au
   Au2050     1.0     0.795651      0.343479      0.552174     Biso  1.000000 Au
   Au2051     1.0     0.830435      0.308695      0.552174     Biso  1.000000 Au
   Au2052     1.0     0.830435      0.343479      0.517391     Biso  1.000000 Au
   Au2053     1.0     0.865217      0.308695      0.517391     Biso  1.000000 Au
   Au2054     1.0     0.865217      0.343479      0.552174     Biso  1.000000 Au
   Au2055     1.0     0.100000      0.378261      0.517391     Biso  1.000000 Au
   Au2056     1.0     0.100000      0.413044      0.552174     Biso  1.000000 Au
   Au2057     1.0     0.134783      0.378261      0.552174     Biso  1.000000 Au
   Au2058     1.0     0.134783      0.413044      0.517391     Biso  1.000000 Au
   Au2059     1.0     0.169565      0.378261      0.517391     Biso  1.000000 Au
   Au2060     1.0     0.169565      0.413044      0.552174     Biso  1.000000 Au
   Au2061     1.0     0.204349      0.378261      0.552174     Biso  1.000000 Au
   Au2062     1.0     0.204349      0.413044      0.517391     Biso  1.000000 Au
   Au2063     1.0     0.239130      0.378261      0.517391     Biso  1.000000 Au
   Au2064     1.0     0.239130      0.413044      0.552174     Biso  1.000000 Au
   Au2065     1.0     0.273914      0.378261      0.552174     Biso  1.000000 Au
   Au2066     1.0     0.273914      0.413044      0.517391     Biso  1.000000 Au
   Au2067     1.0     0.308695      0.378261      0.517391     Biso  1.000000 Au
   Au2068     1.0     0.308695      0.413044      0.552174     Biso  1.000000 Au
   Au2069     1.0     0.343479      0.378261      0.552174     Biso  1.000000 Au
   Au2070     1.0     0.343479      0.413044      0.517391     Biso  1.000000 Au
   Au2071     1.0     0.378261      0.378261      0.517391     Biso  1.000000 Au
   Au2072     1.0     0.378261      0.413044      0.552174     Biso  1.000000 Au
   Au2073     1.0     0.413044      0.378261      0.552174     Biso  1.000000 Au
   Au2074     1.0     0.413044      0.413044      0.517391     Biso  1.000000 Au
   Au2075     1.0     0.447826      0.378261      0.517391     Biso  1.000000 Au
   Au2076     1.0     0.447826      0.413044      0.552174     Biso  1.000000 Au
   Au2077     1.0     0.482609      0.378261      0.552174     Biso  1.000000 Au
   Au2078     1.0     0.482609      0.413044      0.517391     Biso  1.000000 Au
   Au2079     1.0     0.517391      0.378261      0.517391     Biso  1.000000 Au
   Au2080     1.0     0.517391      0.413044      0.552174     Biso  1.000000 Au
   Au2081     1.0     0.552174      0.378261      0.552174     Biso  1.000000 Au
   Au2082     1.0     0.552174      0.413044      0.517391     Biso  1.000000 Au
   Au2083     1.0     0.586956      0.378261      0.517391     Biso  1.000000 Au
   Au2084     1.0     0.586956      0.413044      0.552174     Biso  1.000000 Au
   Au2085     1.0     0.621738      0.378261      0.552174     Biso  1.000000 Au
   Au2086     1.0     0.621738      0.413044      0.517391     Biso  1.000000 Au
   Au2087     1.0     0.656521      0.378261      0.517391     Biso  1.000000 Au
   Au2088     1.0     0.656521      0.413044      0.552174     Biso  1.000000 Au
   Au2089     1.0     0.691305      0.378261      0.552174     Biso  1.000000 Au
   Au2090     1.0     0.691305      0.413044      0.517391     Biso  1.000000 Au
   Au2091     1.0     0.726086      0.378261      0.517391     Biso  1.000000 Au
   Au2092     1.0     0.726086      0.413044      0.552174     Biso  1.000000 Au
   Au2093     1.0     0.760870      0.378261      0.552174     Biso  1.000000 Au
   Au2094     1.0     0.760870      0.413044      0.517391     Biso  1.000000 Au
   Au2095     1.0     0.795651      0.378261      0.517391     Biso  1.000000 Au
   Au2096     1.0     0.795651      0.413044      0.552174     Biso  1.000000 Au
   Au2097     1.0     0.830435      0.378261      0.552174     Biso  1.000000 Au
   Au2098     1.0     0.830435      0.413044      0.517391     Biso  1.000000 Au
   Au2099     1.0     0.865217      0.378261      0.517391     Biso  1.000000 Au
   Au2100     1.0     0.865217      0.413044      0.552174     Biso  1.000000 Au
   Au2101     1.0     0.900000      0.378261      0.552174     Biso  1.000000 Au
   Au2102     1.0     0.900000      0.413044      0.517391     Biso  1.000000 Au
   Au2103     1.0     0.100000      0.447826      0.517391     Biso  1.000000 Au
   Au2104     1.0     0.100000      0.482609      0.552174     Biso  1.000000 Au
   Au2105     1.0     0.134783      0.447826      0.552174     Biso  1.000000 Au
   Au2106     1.0     0.134783      0.482609      0.517391     Biso  1.000000 Au
   Au2107     1.0     0.169565      0.447826      0.517391     Biso  1.000000 Au
   Au2108     1.0     0.169565      0.482609      0.552174     Biso  1.000000 Au
   Au2109     1.0     0.204349      0.447826      0.552174     Biso  1.000000 Au
   Au2110     1.0     0.204349      0.482609      0.517391     Biso  1.000000 Au
   Au2111     1.0     0.239130      0.447826      0.517391     Biso  1.000000 Au
   Au2112     1.0     0.239130      0.482609      0.552174     Biso  1.000000 Au
   Au2113     1.0     0.273914      0.447826      0.552174     Biso  1.000000 Au
   Au2114     1.0     0.273914      0.482609      0.517391     Biso  1.000000 Au
   Au2115     1.0     0.308695      0.447826      0.517391     Biso  1.000000 Au
   Au2116     1.0     0.308695      0.482609      0.552174     Biso  1.000000 Au
   Au2117     1.0     0.343479      0.447826      0.552174     Biso  1.000000 Au
   Au2118     1.0     0.343479      0.482609      0.517391     Biso  1.000000 Au
   Au2119     1.0     0.378261      0.447826      0.517391     Biso  1.000000 Au
   Au2120     1.0     0.378261      0.482609      0.552174     Biso  1.000000 Au
   Au2121     1.0     0.413044      0.447826      0.552174     Biso  1.000000 Au
   Au2122     1.0     0.413044      0.482609      0.517391     Biso  1.000000 Au
   Au2123     1.0     0.447826      0.447826      0.517391     Biso  1.000000 Au
   Au2124     1.0     0.447826      0.482609      0.552174     Biso  1.000000 Au
   Au2125     1.0     0.482609      0.447826      0.552174     Biso  1.000000 Au
   Au2126     1.0     0.482609      0.482609      0.517391     Biso  1.000000 Au
   Au2127     1.0     0.517391      0.447826      0.517391     Biso  1.000000 Au
   Au2128     1.0     0.517391      0.482609      0.552174     Biso  1.000000 Au
   Au2129     1.0     0.552174      0.447826      0.552174     Biso  1.000000 Au
   Au2130     1.0     0.552174      0.482609      0.517391     Biso  1.000000 Au
   Au2131     1.0     0.586956      0.447826      0.517391     Biso  1.000000 Au
   Au2132     1.0     0.586956      0.482609      0.552174     Biso  1.000000 Au
   Au2133     1.0     0.621738      0.447826      0.552174     Biso  1.000000 Au
   Au2134     1.0     0.621738      0.482609      0.517391     Biso  1.000000 Au
   Au2135     1.0     0.656521      0.447826      0.517391     Biso  1.000000 Au
   Au2136     1.0     0.656521      0.482609      0.552174     Biso  1.000000 Au
   Au2137     1.0     0.691305      0.447826      0.552174     Biso  1.000000 Au
   Au2138     1.0     0.691305      0.482609      0.517391     Biso  1.000000 Au
   Au2139     1.0     0.726086      0.447826      0.517391     Biso  1.000000 Au
   Au2140     1.0     0.726086      0.482609      0.552174     Biso  1.000000 Au
   Au2141     1.0     0.760870      0.447826      0.552174     Biso  1.000000 Au
   Au2142     1.0     0.760870      0.482609      0.517391     Biso  1.000000 Au
   Au2143     1.0     0.795651      0.447826      0.517391     Biso  1.000000 Au
   Au2144     1.0     0.795651      0.482609      0.552174     Biso  1.000000 Au
   Au2145     1.0     0.830435      0.447826      0.552174     Biso  1.000000 Au
   Au2146     1.0     0.830435      0.482609      0.517391     Biso  1.000000 Au
   Au2147     1.0     0.865217      0.447826      0.517391     Biso  1.000000 Au
   Au2148     1.0     0.865217      0.482609      0.552174     Biso  1.000000 Au
   Au2149     1.0     0.900000      0.447826      0.552174     Biso  1.000000 Au
   Au2150     1.0     0.900000      0.482609      0.517391     Biso  1.000000 Au
   Au2151     1.0     0.100000      0.517391      0.517391     Biso  1.000000 Au
   Au2152     1.0     0.100000      0.552174      0.552174     Biso  1.000000 Au
   Au2153     1.0     0.134783      0.517391      0.552174     Biso  1.000000 Au
   Au2154     1.0     0.134783      0.552174      0.517391     Biso  1.000000 Au
   Au2155     1.0     0.169565      0.517391      0.517391     Biso  1.000000 Au
   Au2156     1.0     0.169565      0.552174      0.552174     Biso  1.000000 Au
   Au2157     1.0     0.204349      0.517391      0.552174     Biso  1.000000 Au
   Au2158     1.0     0.204349      0.552174      0.517391     Biso  1.000000 Au
   Au2159     1.0     0.239130      0.517391      0.517391     Biso  1.000000 Au
   Au2160     1.0     0.239130      0.552174      0.552174     Biso  1.000000 Au
   Au2161     1.0     0.273914      0.517391      0.552174     Biso  1.000000 Au
   Au2162     1.0     0.273914      0.552174      0.517391     Biso  1.000000 Au
   Au2163     1.0     0.308695      0.517391      0.517391     Biso  1.000000 Au
   Au2164     1.0     0.308695      0.552174      0.552174     Biso  1.000000 Au
   Au2165     1.0     0.343479      0.517391      0.552174     Biso  1.000000 Au
   Au2166     1.0     0.343479      0.552174      0.517391     Biso  1.000000 Au
   Au2167     1.0     0.378261      0.517391      0.517391     Biso  1.000000 Au
   Au2168     1.0     0.378261      0.552174      0.552174     Biso  1.000000 Au
   Au2169     1.0     0.413044      0.517391      0.552174     Biso  1.000000 Au
   Au2170     1.0     0.413044      0.552174      0.517391     Biso  1.000000 Au
   Au2171     1.0     0.447826      0.517391      0.517391     Biso  1.000000 Au
   Au2172     1.0     0.447826      0.552174      0.552174     Biso  1.000000 Au
   Au2173     1.0     0.482609      0.517391      0.552174     Biso  1.000000 Au
   Au2174     1.0     0.482609      0.552174      0.517391     Biso  1.000000 Au
   Au2175     1.0     0.517391      0.517391      0.517391     Biso  1.000000 Au
   Au2176     1.0     0.517391      0.552174      0.552174     Biso  1.000000 Au
   Au2177     1.0     0.552174      0.517391      0.552174     Biso  1.000000 Au
   Au2178     1.0     0.552174      0.552174      0.517391     Biso  1.000000 Au
   Au2179     1.0     0.586956      0.517391      0.517391     Biso  1.000000 Au
   Au2180     1.0     0.586956      0.552174      0.552174     Biso  1.000000 Au
   Au2181     1.0     0.621738      0.517391      0.552174     Biso  1.000000 Au
   Au2182     1.0     0.621738      0.552174      0.517391     Biso  1.000000 Au
   Au2183     1.0     0.656521      0.517391      0.517391     Biso  1.000000 Au
   Au2184     1.0     0.656521      0.552174      0.552174     Biso  1.000000 Au
   Au2185     1.0     0.691305      0.517391      0.552174     Biso  1.000000 Au
   Au2186     1.0     0.691305      0.552174      0.517391     Biso  1.000000 Au
   Au2187     1.0     0.726086      0.517391      0.517391     Biso  1.000000 Au
   Au2188     1.0     0.726086      0.552174      0.552174     Biso  1.000000 Au
   Au2189     1.0     0.760870      0.517391      0.552174     Biso  1.000000 Au
   Au2190     1.0     0.760870      0.552174      0.517391     Biso  1.000000 Au
   Au2191     1.0     0.795651      0.517391      0.517391     Biso  1.000000 Au
   Au2192     1.0     0.795651      0.552174      0.552174     Biso  1.000000 Au
   Au2193     1.0     0.830435      0.517391      0.552174     Biso  1.000000 Au
   Au2194     1.0     0.830435      0.552174      0.517391     Biso  1.000000 Au
   Au2195     1.0     0.865217      0.517391      0.517391     Biso  1.000000 Au
   Au2196     1.0     0.865217      0.552174      0.552174     Biso  1.000000 Au
   Au2197     1.0     0.900000      0.517391      0.552174     Biso  1.000000 Au
   Au2198     1.0     0.900000      0.552174      0.517391     Biso  1.000000 Au
   Au2199     1.0     0.100000      0.586956      0.517391     Biso  1.000000 Au
   Au2200     1.0     0.100000      0.621738      0.552174     Biso  1.000000 Au
   Au2201     1.0     0.134783      0.586956      0.552174     Biso  1.000000 Au
   Au2202     1.0     0.134783      0.621738      0.517391     Biso  1.000000 Au
   Au2203     1.0     0.169565      0.586956      0.517391     Biso  1.000000 Au
   Au2204     1.0     0.169565      0.621738      0.552174     Biso  1.000000 Au
   Au2205     1.0     0.204349      0.586956      0.552174     Biso  1.000000 Au
   Au2206     1.0     0.204349      0.621738      0.517391     Biso  1.000000 Au
   Au2207     1.0     0.239130      0.586956      0.517391     Biso  1.000000 Au
   Au2208     1.0     0.239130      0.621738      0.552174     Biso  1.000000 Au
   Au2209     1.0     0.273914      0.586956      0.552174     Biso  1.000000 Au
   Au2210     1.0     0.273914      0.621738      0.517391     Biso  1.000000 Au
   Au2211     1.0     0.308695      0.586956      0.517391     Biso  1.000000 Au
   Au2212     1.0     0.308695      0.621738      0.552174     Biso  1.000000 Au
   Au2213     1.0     0.343479      0.586956      0.552174     Biso  1.000000 Au
   Au2214     1.0     0.343479      0.621738      0.517391     Biso  1.000000 Au
   Au2215     1.0     0.378261      0.586956      0.517391     Biso  1.000000 Au
   Au2216     1.0     0.378261      0.621738      0.552174     Biso  1.000000 Au
   Au2217     1.0     0.413044      0.586956      0.552174     Biso  1.000000 Au
   Au2218     1.0     0.413044      0.621738      0.517391     Biso  1.000000 Au
   Au2219     1.0     0.447826      0.586956      0.517391     Biso  1.000000 Au
   Au2220     1.0     0.447826      0.621738      0.552174     Biso  1.000000 Au
   Au2221     1.0     0.482609      0.586956      0.552174     Biso  1.000000 Au
   Au2222     1.0     0.482609      0.621738      0.517391     Biso  1.000000 Au
   Au2223     1.0     0.517391      0.586956      0.517391     Biso  1.000000 Au
   Au2224     1.0     0.517391      0.621738      0.552174     Biso  1.000000 Au
   Au2225     1.0     0.552174      0.586956      0.552174     Biso  1.000000 Au
   Au2226     1.0     0.552174      0.621738      0.517391     Biso  1.000000 Au
   Au2227     1.0     0.586956      0.586956      0.517391     Biso  1.000000 Au
   Au2228     1.0     0.586956      0.621738      0.552174     Biso  1.000000 Au
   Au2229     1.0     0.621738      0.586956      0.552174     Biso  1.000000 Au
   Au2230     1.0     0.621738      0.621738      0.517391     Biso  1.000000 Au
   Au2231     1.0     0.656521      0.586956      0.517391     Biso  1.000000 Au
   Au2232     1.0     0.656521      0.621738      0.552174     Biso  1.000000 Au
   Au2233     1.0     0.691305      0.586956      0.552174     Biso  1.000000 Au
   Au2234     1.0     0.691305      0.621738      0.517391     Biso  1.000000 Au
   Au2235     1.0     0.726086      0.586956      0.517391     Biso  1.000000 Au
   Au2236     1.0     0.726086      0.621738      0.552174     Biso  1.000000 Au
   Au2237     1.0     0.760870      0.586956      0.552174     Biso  1.000000 Au
   Au2238     1.0     0.760870      0.621738      0.517391     Biso  1.000000 Au
   Au2239     1.0     0.795651      0.586956      0.517391     Biso  1.000000 Au
   Au2240     1.0     0.795651      0.621738      0.552174     Biso  1.000000 Au
   Au2241     1.0     0.830435      0.586956      0.552174     Biso  1.000000 Au
   Au2242     1.0     0.830435      0.621738      0.517391     Biso  1.000000 Au
   Au2243     1.0     0.865217      0.586956      0.517391     Biso  1.000000 Au
   Au2244     1.0     0.865217      0.621738      0.552174     Biso  1.000000 Au
   Au2245     1.0     0.900000      0.586956      0.552174     Biso  1.000000 Au
   Au2246     1.0     0.900000      0.621738      0.517391     Biso  1.000000 Au
   Au2247     1.0     0.134783      0.656521      0.552174     Biso  1.000000 Au
   Au2248     1.0     0.134783      0.691305      0.517391     Biso  1.000000 Au
   Au2249     1.0     0.169565      0.656521      0.517391     Biso  1.000000 Au
   Au2250     1.0     0.169565      0.691305      0.552174     Biso  1.000000 Au
   Au2251     1.0     0.204349      0.656521      0.552174     Biso  1.000000 Au
   Au2252     1.0     0.204349      0.691305      0.517391     Biso  1.000000 Au
   Au2253     1.0     0.239130      0.656521      0.517391     Biso  1.000000 Au
   Au2254     1.0     0.239130      0.691305      0.552174     Biso  1.000000 Au
   Au2255     1.0     0.273914      0.656521      0.552174     Biso  1.000000 Au
   Au2256     1.0     0.273914      0.691305      0.517391     Biso  1.000000 Au
   Au2257     1.0     0.308695      0.656521      0.517391     Biso  1.000000 Au
   Au2258     1.0     0.308695      0.691305      0.552174     Biso  1.000000 Au
   Au2259     1.0     0.343479      0.656521      0.552174     Biso  1.000000 Au
   Au2260     1.0     0.343479      0.691305      0.517391     Biso  1.000000 Au
   Au2261     1.0     0.378261      0.656521      0.517391     Biso  1.000000 Au
   Au2262     1.0     0.378261      0.691305      0.552174     Biso  1.000000 Au
   Au2263     1.0     0.413044      0.656521      0.552174     Biso  1.000000 Au
   Au2264     1.0     0.413044      0.691305      0.517391     Biso  1.000000 Au
   Au2265     1.0     0.447826      0.656521      0.517391     Biso  1.000000 Au
   Au2266     1.0     0.447826      0.691305      0.552174     Biso  1.000000 Au
   Au2267     1.0     0.482609      0.656521      0.552174     Biso  1.000000 Au
   Au2268     1.0     0.482609      0.691305      0.517391     Biso  1.000000 Au
   Au2269     1.0     0.517391      0.656521      0.517391     Biso  1.000000 Au
   Au2270     1.0     0.517391      0.691305      0.552174     Biso  1.000000 Au
   Au2271     1.0     0.552174      0.656521      0.552174     Biso  1.000000 Au
   Au2272     1.0     0.552174      0.691305      0.517391     Biso  1.000000 Au
   Au2273     1.0     0.586956      0.656521      0.517391     Biso  1.000000 Au
   Au2274     1.0     0.586956      0.691305      0.552174     Biso  1.000000 Au
   Au2275     1.0     0.621738      0.656521      0.552174     Biso  1.000000 Au
   Au2276     1.0     0.621738      0.691305      0.517391     Biso  1.000000 Au
   Au2277     1.0     0.656521      0.656521      0.517391     Biso  1.000000 Au
   Au2278     1.0     0.656521      0.691305      0.552174     Biso  1.000000 Au
   Au2279     1.0     0.691305      0.656521      0.552174     Biso  1.000000 Au
   Au2280     1.0     0.691305      0.691305      0.517391     Biso  1.000000 Au
   Au2281     1.0     0.726086      0.656521      0.517391     Biso  1.000000 Au
   Au2282     1.0     0.726086      0.691305      0.552174     Biso  1.000000 Au
   Au2283     1.0     0.760870      0.656521      0.552174     Biso  1.000000 Au
   Au2284     1.0     0.760870      0.691305      0.517391     Biso  1.000000 Au
   Au2285     1.0     0.795651      0.656521      0.517391     Biso  1.000000 Au
   Au2286     1.0     0.795651      0.691305      0.552174     Biso  1.000000 Au
   Au2287     1.0     0.830435      0.656521      0.552174     Biso  1.000000 Au
   Au2288     1.0     0.830435      0.691305      0.517391     Biso  1.000000 Au
   Au2289     1.0     0.865217      0.656521      0.517391     Biso  1.000000 Au
   Au2290     1.0     0.865217      0.691305      0.552174     Biso  1.000000 Au
   Au2291     1.0     0.169565      0.726086      0.517391     Biso  1.000000 Au
   Au2292     1.0     0.169565      0.760870      0.552174     Biso  1.000000 Au
   Au2293     1.0     0.204349      0.726086      0.552174     Biso  1.000000 Au
   Au2294     1.0     0.204349      0.760870      0.517391     Biso  1.000000 Au
   Au2295     1.0     0.239130      0.726086      0.517391     Biso  1.000000 Au
   Au2296     1.0     0.239130      0.760870      0.552174     Biso  1.000000 Au
   Au2297     1.0     0.273914      0.726086      0.552174     Biso  1.000000 Au
   Au2298     1.0     0.273914      0.760870      0.517391     Biso  1.000000 Au
   Au2299     1.0     0.308695      0.726086      0.517391     Biso  1.000000 Au
   Au2300     1.0     0.308695      0.760870      0.552174     Biso  1.000000 Au
   Au2301     1.0     0.343479      0.726086      0.552174     Biso  1.000000 Au
   Au2302     1.0     0.343479      0.760870      0.517391     Biso  1.000000 Au
   Au2303     1.0     0.378261      0.726086      0.517391     Biso  1.000000 Au
   Au2304     1.0     0.378261      0.760870      0.552174     Biso  1.000000 Au
   Au2305     1.0     0.413044      0.726086      0.552174     Biso  1.000000 Au
   Au2306     1.0     0.413044      0.760870      0.517391     Biso  1.000000 Au
   Au2307     1.0     0.447826      0.726086      0.517391     Biso  1.000000 Au
   Au2308     1.0     0.447826      0.760870      0.552174     Biso  1.000000 Au
   Au2309     1.0     0.482609      0.726086      0.552174     Biso  1.000000 Au
   Au2310     1.0     0.482609      0.760870      0.517391     Biso  1.000000 Au
   Au2311     1.0     0.517391      0.726086      0.517391     Biso  1.000000 Au
   Au2312     1.0     0.517391      0.760870      0.552174     Biso  1.000000 Au
   Au2313     1.0     0.552174      0.726086      0.552174     Biso  1.000000 Au
   Au2314     1.0     0.552174      0.760870      0.517391     Biso  1.000000 Au
   Au2315     1.0     0.586956      0.726086      0.517391     Biso  1.000000 Au
   Au2316     1.0     0.586956      0.760870      0.552174     Biso  1.000000 Au
   Au2317     1.0     0.621738      0.726086      0.552174     Biso  1.000000 Au
   Au2318     1.0     0.621738      0.760870      0.517391     Biso  1.000000 Au
   Au2319     1.0     0.656521      0.726086      0.517391     Biso  1.000000 Au
   Au2320     1.0     0.656521      0.760870      0.552174     Biso  1.000000 Au
   Au2321     1.0     0.691305      0.726086      0.552174     Biso  1.000000 Au
   Au2322     1.0     0.691305      0.760870      0.517391     Biso  1.000000 Au
   Au2323     1.0     0.726086      0.726086      0.517391     Biso  1.000000 Au
   Au2324     1.0     0.726086      0.760870      0.552174     Biso  1.000000 Au
   Au2325     1.0     0.760870      0.726086      0.552174     Biso  1.000000 Au
   Au2326     1.0     0.760870      0.760870      0.517391     Biso  1.000000 Au
   Au2327     1.0     0.795651      0.726086      0.517391     Biso  1.000000 Au
   Au2328     1.0     0.795651      0.760870      0.552174     Biso  1.000000 Au
   Au2329     1.0     0.830435      0.726086      0.552174     Biso  1.000000 Au
   Au2330     1.0     0.830435      0.760870      0.517391     Biso  1.000000 Au
   Au2331     1.0     0.204349      0.795651      0.552174     Biso  1.000000 Au
   Au2332     1.0     0.239130      0.795651      0.517391     Biso  1.000000 Au
   Au2333     1.0     0.239130      0.830435      0.552174     Biso  1.000000 Au
   Au2334     1.0     0.273914      0.795651      0.552174     Biso  1.000000 Au
   Au2335     1.0     0.273914      0.830435      0.517391     Biso  1.000000 Au
   Au2336     1.0     0.308695      0.795651      0.517391     Biso  1.000000 Au
   Au2337     1.0     0.308695      0.830435      0.552174     Biso  1.000000 Au
   Au2338     1.0     0.343479      0.795651      0.552174     Biso  1.000000 Au
   Au2339     1.0     0.343479      0.830435      0.517391     Biso  1.000000 Au
   Au2340     1.0     0.378261      0.795651      0.517391     Biso  1.000000 Au
   Au2341     1.0     0.378261      0.830435      0.552174     Biso  1.000000 Au
   Au2342     1.0     0.413044      0.795651      0.552174     Biso  1.000000 Au
   Au2343     1.0     0.413044      0.830435      0.517391     Biso  1.000000 Au
   Au2344     1.0     0.447826      0.795651      0.517391     Biso  1.000000 Au
   Au2345     1.0     0.447826      0.830435      0.552174     Biso  1.000000 Au
   Au2346     1.0     0.482609      0.795651      0.552174     Biso  1.000000 Au
   Au2347     1.0     0.482609      0.830435      0.517391     Biso  1.000000 Au
   Au2348     1.0     0.517391      0.795651      0.517391     Biso  1.000000 Au
   Au2349     1.0     0.517391      0.830435      0.552174     Biso  1.000000 Au
   Au2350     1.0     0.552174      0.795651      0.552174     Biso  1.000000 Au
   Au2351     1.0     0.552174      0.830435      0.517391     Biso  1.000000 Au
   Au2352     1.0     0.586956      0.795651      0.517391     Biso  1.000000 Au
   Au2353     1.0     0.586956      0.830435      0.552174     Biso  1.000000 Au
   Au2354     1.0     0.621738      0.795651      0.552174     Biso  1.000000 Au
   Au2355     1.0     0.621738      0.830435      0.517391     Biso  1.000000 Au
   Au2356     1.0     0.656521      0.795651      0.517391     Biso  1.000000 Au
   Au2357     1.0     0.656521      0.830435      0.552174     Biso  1.000000 Au
   Au2358     1.0     0.691305      0.795651      0.552174     Biso  1.000000 Au
   Au2359     1.0     0.691305      0.830435      0.517391     Biso  1.000000 Au
   Au2360     1.0     0.726086      0.795651      0.517391     Biso  1.000000 Au
   Au2361     1.0     0.726086      0.830435      0.552174     Biso  1.000000 Au
   Au2362     1.0     0.760870      0.795651      0.552174     Biso  1.000000 Au
   Au2363     1.0     0.760870      0.830435      0.517391     Biso  1.000000 Au
   Au2364     1.0     0.795651      0.795651      0.517391     Biso  1.000000 Au
   Au2365     1.0     0.308695      0.865217      0.517391     Biso  1.000000 Au
   Au2366     1.0     0.343479      0.865217      0.552174     Biso  1.000000 Au
   Au2367     1.0     0.378261      0.865217      0.517391     Biso  1.000000 Au
   Au2368     1.0     0.378261      0.900000      0.552174     Biso  1.000000 Au
   Au2369     1.0     0.413044      0.865217      0.552174     Biso  1.000000 Au
   Au2370     1.0     0.413044      0.900000      0.517391     Biso  1.000000 Au
   Au2371     1.0     0.447826      0.865217      0.517391     Biso  1.000000 Au
   Au2372     1.0     0.447826      0.900000      0.552174     Biso  1.000000 Au
   Au2373     1.0     0.482609      0.865217      0.552174     Biso  1.000000 Au
   Au2374     1.0     0.482609      0.900000      0.517391     Biso  1.000000 Au
   Au2375     1.0     0.517391      0.865217      0.517391     Biso  1.000000 Au
   Au2376     1.0     0.517391      0.900000      0.552174     Biso  1.000000 Au
   Au2377     1.0     0.552174      0.865217      0.552174     Biso  1.000000 Au
   Au2378     1.0     0.552174      0.900000      0.517391     Biso  1.000000 Au
   Au2379     1.0     0.586956      0.865217      0.517391     Biso  1.000000 Au
   Au2380     1.0     0.586956      0.900000      0.552174     Biso  1.000000 Au
   Au2381     1.0     0.621738      0.865217      0.552174     Biso  1.000000 Au
   Au2382     1.0     0.621738      0.900000      0.517391     Biso  1.000000 Au
   Au2383     1.0     0.656521      0.865217      0.517391     Biso  1.000000 Au
   Au2384     1.0     0.691305      0.865217      0.552174     Biso  1.000000 Au
   Au2385     1.0     0.343479      0.134783      0.586956     Biso  1.000000 Au
   Au2386     1.0     0.378261      0.134783      0.621738     Biso  1.000000 Au
   Au2387     1.0     0.413044      0.134783      0.586956     Biso  1.000000 Au
   Au2388     1.0     0.447826      0.100000      0.586956     Biso  1.000000 Au
   Au2389     1.0     0.447826      0.134783      0.621738     Biso  1.000000 Au
   Au2390     1.0     0.482609      0.100000      0.621738     Biso  1.000000 Au
   Au2391     1.0     0.482609      0.134783      0.586956     Biso  1.000000 Au
   Au2392     1.0     0.517391      0.100000      0.586956     Biso  1.000000 Au
   Au2393     1.0     0.517391      0.134783      0.621738     Biso  1.000000 Au
   Au2394     1.0     0.552174      0.100000      0.621738     Biso  1.000000 Au
   Au2395     1.0     0.552174      0.134783      0.586956     Biso  1.000000 Au
   Au2396     1.0     0.586956      0.100000      0.586956     Biso  1.000000 Au
   Au2397     1.0     0.586956      0.134783      0.621738     Biso  1.000000 Au
   Au2398     1.0     0.621738      0.134783      0.586956     Biso  1.000000 Au
   Au2399     1.0     0.656521      0.134783      0.621738     Biso  1.000000 Au
   Au2400     1.0     0.691305      0.134783      0.586956     Biso  1.000000 Au
   Au2401     1.0     0.239130      0.204349      0.621738     Biso  1.000000 Au
   Au2402     1.0     0.273914      0.169565      0.621738     Biso  1.000000 Au
   Au2403     1.0     0.273914      0.204349      0.586956     Biso  1.000000 Au
   Au2404     1.0     0.308695      0.169565      0.586956     Biso  1.000000 Au
   Au2405     1.0     0.308695      0.204349      0.621738     Biso  1.000000 Au
   Au2406     1.0     0.343479      0.169565      0.621738     Biso  1.000000 Au
   Au2407     1.0     0.343479      0.204349      0.586956     Biso  1.000000 Au
   Au2408     1.0     0.378261      0.169565      0.586956     Biso  1.000000 Au
   Au2409     1.0     0.378261      0.204349      0.621738     Biso  1.000000 Au
   Au2410     1.0     0.413044      0.169565      0.621738     Biso  1.000000 Au
   Au2411     1.0     0.413044      0.204349      0.586956     Biso  1.000000 Au
   Au2412     1.0     0.447826      0.169565      0.586956     Biso  1.000000 Au
   Au2413     1.0     0.447826      0.204349      0.621738     Biso  1.000000 Au
   Au2414     1.0     0.482609      0.169565      0.621738     Biso  1.000000 Au
   Au2415     1.0     0.482609      0.204349      0.586956     Biso  1.000000 Au
   Au2416     1.0     0.517391      0.169565      0.586956     Biso  1.000000 Au
   Au2417     1.0     0.517391      0.204349      0.621738     Biso  1.000000 Au
   Au2418     1.0     0.552174      0.169565      0.621738     Biso  1.000000 Au
   Au2419     1.0     0.552174      0.204349      0.586956     Biso  1.000000 Au
   Au2420     1.0     0.586956      0.169565      0.586956     Biso  1.000000 Au
   Au2421     1.0     0.586956      0.204349      0.621738     Biso  1.000000 Au
   Au2422     1.0     0.621738      0.169565      0.621738     Biso  1.000000 Au
   Au2423     1.0     0.621738      0.204349      0.586956     Biso  1.000000 Au
   Au2424     1.0     0.656521      0.169565      0.586956     Biso  1.000000 Au
   Au2425     1.0     0.656521      0.204349      0.621738     Biso  1.000000 Au
   Au2426     1.0     0.691305      0.169565      0.621738     Biso  1.000000 Au
   Au2427     1.0     0.691305      0.204349      0.586956     Biso  1.000000 Au
   Au2428     1.0     0.726086      0.169565      0.586956     Biso  1.000000 Au
   Au2429     1.0     0.726086      0.204349      0.621738     Biso  1.000000 Au
   Au2430     1.0     0.760870      0.204349      0.586956     Biso  1.000000 Au
   Au2431     1.0     0.169565      0.273914      0.621738     Biso  1.000000 Au
   Au2432     1.0     0.204349      0.239130      0.621738     Biso  1.000000 Au
   Au2433     1.0     0.204349      0.273914      0.586956     Biso  1.000000 Au
   Au2434     1.0     0.239130      0.239130      0.586956     Biso  1.000000 Au
   Au2435     1.0     0.239130      0.273914      0.621738     Biso  1.000000 Au
   Au2436     1.0     0.273914      0.239130      0.621738     Biso  1.000000 Au
   Au2437     1.0     0.273914      0.273914      0.586956     Biso  1.000000 Au
   Au2438     1.0     0.308695      0.239130      0.586956     Biso  1.000000 Au
   Au2439     1.0     0.308695      0.273914      0.621738     Biso  1.000000 Au
   Au2440     1.0     0.343479      0.239130      0.621738     Biso  1.000000 Au
   Au2441     1.0     0.343479      0.273914      0.586956     Biso  1.000000 Au
   Au2442     1.0     0.378261      0.239130      0.586956     Biso  1.000000 Au
   Au2443     1.0     0.378261      0.273914      0.621738     Biso  1.000000 Au
   Au2444     1.0     0.413044      0.239130      0.621738     Biso  1.000000 Au
   Au2445     1.0     0.413044      0.273914      0.586956     Biso  1.000000 Au
   Au2446     1.0     0.447826      0.239130      0.586956     Biso  1.000000 Au
   Au2447     1.0     0.447826      0.273914      0.621738     Biso  1.000000 Au
   Au2448     1.0     0.482609      0.239130      0.621738     Biso  1.000000 Au
   Au2449     1.0     0.482609      0.273914      0.586956     Biso  1.000000 Au
   Au2450     1.0     0.517391      0.239130      0.586956     Biso  1.000000 Au
   Au2451     1.0     0.517391      0.273914      0.621738     Biso  1.000000 Au
   Au2452     1.0     0.552174      0.239130      0.621738     Biso  1.000000 Au
   Au2453     1.0     0.552174      0.273914      0.586956     Biso  1.000000 Au
   Au2454     1.0     0.586956      0.239130      0.586956     Biso  1.000000 Au
   Au2455     1.0     0.586956      0.273914      0.621738     Biso  1.000000 Au
   Au2456     1.0     0.621738      0.239130      0.621738     Biso  1.000000 Au
   Au2457     1.0     0.621738      0.273914      0.586956     Biso  1.000000 Au
   Au2458     1.0     0.656521      0.239130      0.586956     Biso  1.000000 Au
   Au2459     1.0     0.656521      0.273914      0.621738     Biso  1.000000 Au
   Au2460     1.0     0.691305      0.239130      0.621738     Biso  1.000000 Au
   Au2461     1.0     0.691305      0.273914      0.586956     Biso  1.000000 Au
   Au2462     1.0     0.726086      0.239130      0.586956     Biso  1.000000 Au
   Au2463     1.0     0.726086      0.273914      0.621738     Biso  1.000000 Au
   Au2464     1.0     0.760870      0.239130      0.621738     Biso  1.000000 Au
   Au2465     1.0     0.760870      0.273914      0.586956     Biso  1.000000 Au
   Au2466     1.0     0.795651      0.239130      0.586956     Biso  1.000000 Au
   Au2467     1.0     0.795651      0.273914      0.621738     Biso  1.000000 Au
   Au2468     1.0     0.830435      0.273914      0.586956     Biso  1.000000 Au
   Au2469     1.0     0.134783      0.343479      0.586956     Biso  1.000000 Au
   Au2470     1.0     0.169565      0.308695      0.586956     Biso  1.000000 Au
   Au2471     1.0     0.169565      0.343479      0.621738     Biso  1.000000 Au
   Au2472     1.0     0.204349      0.308695      0.621738     Biso  1.000000 Au
   Au2473     1.0     0.204349      0.343479      0.586956     Biso  1.000000 Au
   Au2474     1.0     0.239130      0.308695      0.586956     Biso  1.000000 Au
   Au2475     1.0     0.239130      0.343479      0.621738     Biso  1.000000 Au
   Au2476     1.0     0.273914      0.308695      0.621738     Biso  1.000000 Au
   Au2477     1.0     0.273914      0.343479      0.586956     Biso  1.000000 Au
   Au2478     1.0     0.308695      0.308695      0.586956     Biso  1.000000 Au
   Au2479     1.0     0.308695      0.343479      0.621738     Biso  1.000000 Au
   Au2480     1.0     0.343479      0.308695      0.621738     Biso  1.000000 Au
   Au2481     1.0     0.343479      0.343479      0.586956     Biso  1.000000 Au
   Au2482     1.0     0.378261      0.308695      0.586956     Biso  1.000000 Au
   Au2483     1.0     0.378261      0.343479      0.621738     Biso  1.000000 Au
   Au2484     1.0     0.413044      0.308695      0.621738     Biso  1.000000 Au
   Au2485     1.0     0.413044      0.343479      0.586956     Biso  1.000000 Au
   Au2486     1.0     0.447826      0.308695      0.586956     Biso  1.000000 Au
   Au2487     1.0     0.447826      0.343479      0.621738     Biso  1.000000 Au
   Au2488     1.0     0.482609      0.308695      0.621738     Biso  1.000000 Au
   Au2489     1.0     0.482609      0.343479      0.586956     Biso  1.000000 Au
   Au2490     1.0     0.517391      0.308695      0.586956     Biso  1.000000 Au
   Au2491     1.0     0.517391      0.343479      0.621738     Biso  1.000000 Au
   Au2492     1.0     0.552174      0.308695      0.621738     Biso  1.000000 Au
   Au2493     1.0     0.552174      0.343479      0.586956     Biso  1.000000 Au
   Au2494     1.0     0.586956      0.308695      0.586956     Biso  1.000000 Au
   Au2495     1.0     0.586956      0.343479      0.621738     Biso  1.000000 Au
   Au2496     1.0     0.621738      0.308695      0.621738     Biso  1.000000 Au
   Au2497     1.0     0.621738      0.343479      0.586956     Biso  1.000000 Au
   Au2498     1.0     0.656521      0.308695      0.586956     Biso  1.000000 Au
   Au2499     1.0     0.656521      0.343479      0.621738     Biso  1.000000 Au
   Au2500     1.0     0.691305      0.308695      0.621738     Biso  1.000000 Au
   Au2501     1.0     0.691305      0.343479      0.586956     Biso  1.000000 Au
   Au2502     1.0     0.726086      0.308695      0.586956     Biso  1.000000 Au
   Au2503     1.0     0.726086      0.343479      0.621738     Biso  1.000000 Au
   Au2504     1.0     0.760870      0.308695      0.621738     Biso  1.000000 Au
   Au2505     1.0     0.760870      0.343479      0.586956     Biso  1.000000 Au
   Au2506     1.0     0.795651      0.308695      0.586956     Biso  1.000000 Au
   Au2507     1.0     0.795651      0.343479      0.621738     Biso  1.000000 Au
   Au2508     1.0     0.830435      0.308695      0.621738     Biso  1.000000 Au
   Au2509     1.0     0.830435      0.343479      0.586956     Biso  1.000000 Au
   Au2510     1.0     0.865217      0.308695      0.586956     Biso  1.000000 Au
   Au2511     1.0     0.865217      0.343479      0.621738     Biso  1.000000 Au
   Au2512     1.0     0.134783      0.378261      0.621738     Biso  1.000000 Au
   Au2513     1.0     0.134783      0.413044      0.586956     Biso  1.000000 Au
   Au2514     1.0     0.169565      0.378261      0.586956     Biso  1.000000 Au
   Au2515     1.0     0.169565      0.413044      0.621738     Biso  1.000000 Au
   Au2516     1.0     0.204349      0.378261      0.621738     Biso  1.000000 Au
   Au2517     1.0     0.204349      0.413044      0.586956     Biso  1.000000 Au
   Au2518     1.0     0.239130      0.378261      0.586956     Biso  1.000000 Au
   Au2519     1.0     0.239130      0.413044      0.621738     Biso  1.000000 Au
   Au2520     1.0     0.273914      0.378261      0.621738     Biso  1.000000 Au
   Au2521     1.0     0.273914      0.413044      0.586956     Biso  1.000000 Au
   Au2522     1.0     0.308695      0.378261      0.586956     Biso  1.000000 Au
   Au2523     1.0     0.308695      0.413044      0.621738     Biso  1.000000 Au
   Au2524     1.0     0.343479      0.378261      0.621738     Biso  1.000000 Au
   Au2525     1.0     0.343479      0.413044      0.586956     Biso  1.000000 Au
   Au2526     1.0     0.378261      0.378261      0.586956     Biso  1.000000 Au
   Au2527     1.0     0.378261      0.413044      0.621738     Biso  1.000000 Au
   Au2528     1.0     0.413044      0.378261      0.621738     Biso  1.000000 Au
   Au2529     1.0     0.413044      0.413044      0.586956     Biso  1.000000 Au
   Au2530     1.0     0.447826      0.378261      0.586956     Biso  1.000000 Au
   Au2531     1.0     0.447826      0.413044      0.621738     Biso  1.000000 Au
   Au2532     1.0     0.482609      0.378261      0.621738     Biso  1.000000 Au
   Au2533     1.0     0.482609      0.413044      0.586956     Biso  1.000000 Au
   Au2534     1.0     0.517391      0.378261      0.586956     Biso  1.000000 Au
   Au2535     1.0     0.517391      0.413044      0.621738     Biso  1.000000 Au
   Au2536     1.0     0.552174      0.378261      0.621738     Biso  1.000000 Au
   Au2537     1.0     0.552174      0.413044      0.586956     Biso  1.000000 Au
   Au2538     1.0     0.586956      0.378261      0.586956     Biso  1.000000 Au
   Au2539     1.0     0.586956      0.413044      0.621738     Biso  1.000000 Au
   Au2540     1.0     0.621738      0.378261      0.621738     Biso  1.000000 Au
   Au2541     1.0     0.621738      0.413044      0.586956     Biso  1.000000 Au
   Au2542     1.0     0.656521      0.378261      0.586956     Biso  1.000000 Au
   Au2543     1.0     0.656521      0.413044      0.621738     Biso  1.000000 Au
   Au2544     1.0     0.691305      0.378261      0.621738     Biso  1.000000 Au
   Au2545     1.0     0.691305      0.413044      0.586956     Biso  1.000000 Au
   Au2546     1.0     0.726086      0.378261      0.586956     Biso  1.000000 Au
   Au2547     1.0     0.726086      0.413044      0.621738     Biso  1.000000 Au
   Au2548     1.0     0.760870      0.378261      0.621738     Biso  1.000000 Au
   Au2549     1.0     0.760870      0.413044      0.586956     Biso  1.000000 Au
   Au2550     1.0     0.795651      0.378261      0.586956     Biso  1.000000 Au
   Au2551     1.0     0.795651      0.413044      0.621738     Biso  1.000000 Au
   Au2552     1.0     0.830435      0.378261      0.621738     Biso  1.000000 Au
   Au2553     1.0     0.830435      0.413044      0.586956     Biso  1.000000 Au
   Au2554     1.0     0.865217      0.378261      0.586956     Biso  1.000000 Au
   Au2555     1.0     0.865217      0.413044      0.621738     Biso  1.000000 Au
   Au2556     1.0     0.900000      0.413044      0.586956     Biso  1.000000 Au
   Au2557     1.0     0.100000      0.447826      0.586956     Biso  1.000000 Au
   Au2558     1.0     0.100000      0.482609      0.621738     Biso  1.000000 Au
   Au2559     1.0     0.134783      0.447826      0.621738     Biso  1.000000 Au
   Au2560     1.0     0.134783      0.482609      0.586956     Biso  1.000000 Au
   Au2561     1.0     0.169565      0.447826      0.586956     Biso  1.000000 Au
   Au2562     1.0     0.169565      0.482609      0.621738     Biso  1.000000 Au
   Au2563     1.0     0.204349      0.447826      0.621738     Biso  1.000000 Au
   Au2564     1.0     0.204349      0.482609      0.586956     Biso  1.000000 Au
   Au2565     1.0     0.239130      0.447826      0.586956     Biso  1.000000 Au
   Au2566     1.0     0.239130      0.482609      0.621738     Biso  1.000000 Au
   Au2567     1.0     0.273914      0.447826      0.621738     Biso  1.000000 Au
   Au2568     1.0     0.273914      0.482609      0.586956     Biso  1.000000 Au
   Au2569     1.0     0.308695      0.447826      0.586956     Biso  1.000000 Au
   Au2570     1.0     0.308695      0.482609      0.621738     Biso  1.000000 Au
   Au2571     1.0     0.343479      0.447826      0.621738     Biso  1.000000 Au
   Au2572     1.0     0.343479      0.482609      0.586956     Biso  1.000000 Au
   Au2573     1.0     0.378261      0.447826      0.586956     Biso  1.000000 Au
   Au2574     1.0     0.378261      0.482609      0.621738     Biso  1.000000 Au
   Au2575     1.0     0.413044      0.447826      0.621738     Biso  1.000000 Au
   Au2576     1.0     0.413044      0.482609      0.586956     Biso  1.000000 Au
   Au2577     1.0     0.447826      0.447826      0.586956     Biso  1.000000 Au
   Au2578     1.0     0.447826      0.482609      0.621738     Biso  1.000000 Au
   Au2579     1.0     0.482609      0.447826      0.621738     Biso  1.000000 Au
   Au2580     1.0     0.482609      0.482609      0.586956     Biso  1.000000 Au
   Au2581     1.0     0.517391      0.447826      0.586956     Biso  1.000000 Au
   Au2582     1.0     0.517391      0.482609      0.621738     Biso  1.000000 Au
   Au2583     1.0     0.552174      0.447826      0.621738     Biso  1.000000 Au
   Au2584     1.0     0.552174      0.482609      0.586956     Biso  1.000000 Au
   Au2585     1.0     0.586956      0.447826      0.586956     Biso  1.000000 Au
   Au2586     1.0     0.586956      0.482609      0.621738     Biso  1.000000 Au
   Au2587     1.0     0.621738      0.447826      0.621738     Biso  1.000000 Au
   Au2588     1.0     0.621738      0.482609      0.586956     Biso  1.000000 Au
   Au2589     1.0     0.656521      0.447826      0.586956     Biso  1.000000 Au
   Au2590     1.0     0.656521      0.482609      0.621738     Biso  1.000000 Au
   Au2591     1.0     0.691305      0.447826      0.621738     Biso  1.000000 Au
   Au2592     1.0     0.691305      0.482609      0.586956     Biso  1.000000 Au
   Au2593     1.0     0.726086      0.447826      0.586956     Biso  1.000000 Au
   Au2594     1.0     0.726086      0.482609      0.621738     Biso  1.000000 Au
   Au2595     1.0     0.760870      0.447826      0.621738     Biso  1.000000 Au
   Au2596     1.0     0.760870      0.482609      0.586956     Biso  1.000000 Au
   Au2597     1.0     0.795651      0.447826      0.586956     Biso  1.000000 Au
   Au2598     1.0     0.795651      0.482609      0.621738     Biso  1.000000 Au
   Au2599     1.0     0.830435      0.447826      0.621738     Biso  1.000000 Au
   Au2600     1.0     0.830435      0.482609      0.586956     Biso  1.000000 Au
   Au2601     1.0     0.865217      0.447826      0.586956     Biso  1.000000 Au
   Au2602     1.0     0.865217      0.482609      0.621738     Biso  1.000000 Au
   Au2603     1.0     0.900000      0.447826      0.621738     Biso  1.000000 Au
   Au2604     1.0     0.900000      0.482609      0.586956     Biso  1.000000 Au
   Au2605     1.0     0.100000      0.517391      0.586956     Biso  1.000000 Au
   Au2606     1.0     0.100000      0.552174      0.621738     Biso  1.000000 Au
   Au2607     1.0     0.134783      0.517391      0.621738     Biso  1.000000 Au
   Au2608     1.0     0.134783      0.552174      0.586956     Biso  1.000000 Au
   Au2609     1.0     0.169565      0.517391      0.586956     Biso  1.000000 Au
   Au2610     1.0     0.169565      0.552174      0.621738     Biso  1.000000 Au
   Au2611     1.0     0.204349      0.517391      0.621738     Biso  1.000000 Au
   Au2612     1.0     0.204349      0.552174      0.586956     Biso  1.000000 Au
   Au2613     1.0     0.239130      0.517391      0.586956     Biso  1.000000 Au
   Au2614     1.0     0.239130      0.552174      0.621738     Biso  1.000000 Au
   Au2615     1.0     0.273914      0.517391      0.621738     Biso  1.000000 Au
   Au2616     1.0     0.273914      0.552174      0.586956     Biso  1.000000 Au
   Au2617     1.0     0.308695      0.517391      0.586956     Biso  1.000000 Au
   Au2618     1.0     0.308695      0.552174      0.621738     Biso  1.000000 Au
   Au2619     1.0     0.343479      0.517391      0.621738     Biso  1.000000 Au
   Au2620     1.0     0.343479      0.552174      0.586956     Biso  1.000000 Au
   Au2621     1.0     0.378261      0.517391      0.586956     Biso  1.000000 Au
   Au2622     1.0     0.378261      0.552174      0.621738     Biso  1.000000 Au
   Au2623     1.0     0.413044      0.517391      0.621738     Biso  1.000000 Au
   Au2624     1.0     0.413044      0.552174      0.586956     Biso  1.000000 Au
   Au2625     1.0     0.447826      0.517391      0.586956     Biso  1.000000 Au
   Au2626     1.0     0.447826      0.552174      0.621738     Biso  1.000000 Au
   Au2627     1.0     0.482609      0.517391      0.621738     Biso  1.000000 Au
   Au2628     1.0     0.482609      0.552174      0.586956     Biso  1.000000 Au
   Au2629     1.0     0.517391      0.517391      0.586956     Biso  1.000000 Au
   Au2630     1.0     0.517391      0.552174      0.621738     Biso  1.000000 Au
   Au2631     1.0     0.552174      0.517391      0.621738     Biso  1.000000 Au
   Au2632     1.0     0.552174      0.552174      0.586956     Biso  1.000000 Au
   Au2633     1.0     0.586956      0.517391      0.586956     Biso  1.000000 Au
   Au2634     1.0     0.586956      0.552174      0.621738     Biso  1.000000 Au
   Au2635     1.0     0.621738      0.517391      0.621738     Biso  1.000000 Au
   Au2636     1.0     0.621738      0.552174      0.586956     Biso  1.000000 Au
   Au2637     1.0     0.656521      0.517391      0.586956     Biso  1.000000 Au
   Au2638     1.0     0.656521      0.552174      0.621738     Biso  1.000000 Au
   Au2639     1.0     0.691305      0.517391      0.621738     Biso  1.000000 Au
   Au2640     1.0     0.691305      0.552174      0.586956     Biso  1.000000 Au
   Au2641     1.0     0.726086      0.517391      0.586956     Biso  1.000000 Au
   Au2642     1.0     0.726086      0.552174      0.621738     Biso  1.000000 Au
   Au2643     1.0     0.760870      0.517391      0.621738     Biso  1.000000 Au
   Au2644     1.0     0.760870      0.552174      0.586956     Biso  1.000000 Au
   Au2645     1.0     0.795651      0.517391      0.586956     Biso  1.000000 Au
   Au2646     1.0     0.795651      0.552174      0.621738     Biso  1.000000 Au
   Au2647     1.0     0.830435      0.517391      0.621738     Biso  1.000000 Au
   Au2648     1.0     0.830435      0.552174      0.586956     Biso  1.000000 Au
   Au2649     1.0     0.865217      0.517391      0.586956     Biso  1.000000 Au
   Au2650     1.0     0.865217      0.552174      0.621738     Biso  1.000000 Au
   Au2651     1.0     0.900000      0.517391      0.621738     Biso  1.000000 Au
   Au2652     1.0     0.900000      0.552174      0.586956     Biso  1.000000 Au
   Au2653     1.0     0.100000      0.586956      0.586956     Biso  1.000000 Au
   Au2654     1.0     0.134783      0.586956      0.621738     Biso  1.000000 Au
   Au2655     1.0     0.134783      0.621738      0.586956     Biso  1.000000 Au
   Au2656     1.0     0.169565      0.586956      0.586956     Biso  1.000000 Au
   Au2657     1.0     0.169565      0.621738      0.621738     Biso  1.000000 Au
   Au2658     1.0     0.204349      0.586956      0.621738     Biso  1.000000 Au
   Au2659     1.0     0.204349      0.621738      0.586956     Biso  1.000000 Au
   Au2660     1.0     0.239130      0.586956      0.586956     Biso  1.000000 Au
   Au2661     1.0     0.239130      0.621738      0.621738     Biso  1.000000 Au
   Au2662     1.0     0.273914      0.586956      0.621738     Biso  1.000000 Au
   Au2663     1.0     0.273914      0.621738      0.586956     Biso  1.000000 Au
   Au2664     1.0     0.308695      0.586956      0.586956     Biso  1.000000 Au
   Au2665     1.0     0.308695      0.621738      0.621738     Biso  1.000000 Au
   Au2666     1.0     0.343479      0.586956      0.621738     Biso  1.000000 Au
   Au2667     1.0     0.343479      0.621738      0.586956     Biso  1.000000 Au
   Au2668     1.0     0.378261      0.586956      0.586956     Biso  1.000000 Au
   Au2669     1.0     0.378261      0.621738      0.621738     Biso  1.000000 Au
   Au2670     1.0     0.413044      0.586956      0.621738     Biso  1.000000 Au
   Au2671     1.0     0.413044      0.621738      0.586956     Biso  1.000000 Au
   Au2672     1.0     0.447826      0.586956      0.586956     Biso  1.000000 Au
   Au2673     1.0     0.447826      0.621738      0.621738     Biso  1.000000 Au
   Au2674     1.0     0.482609      0.586956      0.621738     Biso  1.000000 Au
   Au2675     1.0     0.482609      0.621738      0.586956     Biso  1.000000 Au
   Au2676     1.0     0.517391      0.586956      0.586956     Biso  1.000000 Au
   Au2677     1.0     0.517391      0.621738      0.621738     Biso  1.000000 Au
   Au2678     1.0     0.552174      0.586956      0.621738     Biso  1.000000 Au
   Au2679     1.0     0.552174      0.621738      0.586956     Biso  1.000000 Au
   Au2680     1.0     0.586956      0.586956      0.586956     Biso  1.000000 Au
   Au2681     1.0     0.586956      0.621738      0.621738     Biso  1.000000 Au
   Au2682     1.0     0.621738      0.586956      0.621738     Biso  1.000000 Au
   Au2683     1.0     0.621738      0.621738      0.586956     Biso  1.000000 Au
   Au2684     1.0     0.656521      0.586956      0.586956     Biso  1.000000 Au
   Au2685     1.0     0.656521      0.621738      0.621738     Biso  1.000000 Au
   Au2686     1.0     0.691305      0.586956      0.621738     Biso  1.000000 Au
   Au2687     1.0     0.691305      0.621738      0.586956     Biso  1.000000 Au
   Au2688     1.0     0.726086      0.586956      0.586956     Biso  1.000000 Au
   Au2689     1.0     0.726086      0.621738      0.621738     Biso  1.000000 Au
   Au2690     1.0     0.760870      0.586956      0.621738     Biso  1.000000 Au
   Au2691     1.0     0.760870      0.621738      0.586956     Biso  1.000000 Au
   Au2692     1.0     0.795651      0.586956      0.586956     Biso  1.000000 Au
   Au2693     1.0     0.795651      0.621738      0.621738     Biso  1.000000 Au
   Au2694     1.0     0.830435      0.586956      0.621738     Biso  1.000000 Au
   Au2695     1.0     0.830435      0.621738      0.586956     Biso  1.000000 Au
   Au2696     1.0     0.865217      0.586956      0.586956     Biso  1.000000 Au
   Au2697     1.0     0.865217      0.621738      0.621738     Biso  1.000000 Au
   Au2698     1.0     0.134783      0.656521      0.621738     Biso  1.000000 Au
   Au2699     1.0     0.134783      0.691305      0.586956     Biso  1.000000 Au
   Au2700     1.0     0.169565      0.656521      0.586956     Biso  1.000000 Au
   Au2701     1.0     0.169565      0.691305      0.621738     Biso  1.000000 Au
   Au2702     1.0     0.204349      0.656521      0.621738     Biso  1.000000 Au
   Au2703     1.0     0.204349      0.691305      0.586956     Biso  1.000000 Au
   Au2704     1.0     0.239130      0.656521      0.586956     Biso  1.000000 Au
   Au2705     1.0     0.239130      0.691305      0.621738     Biso  1.000000 Au
   Au2706     1.0     0.273914      0.656521      0.621738     Biso  1.000000 Au
   Au2707     1.0     0.273914      0.691305      0.586956     Biso  1.000000 Au
   Au2708     1.0     0.308695      0.656521      0.586956     Biso  1.000000 Au
   Au2709     1.0     0.308695      0.691305      0.621738     Biso  1.000000 Au
   Au2710     1.0     0.343479      0.656521      0.621738     Biso  1.000000 Au
   Au2711     1.0     0.343479      0.691305      0.586956     Biso  1.000000 Au
   Au2712     1.0     0.378261      0.656521      0.586956     Biso  1.000000 Au
   Au2713     1.0     0.378261      0.691305      0.621738     Biso  1.000000 Au
   Au2714     1.0     0.413044      0.656521      0.621738     Biso  1.000000 Au
   Au2715     1.0     0.413044      0.691305      0.586956     Biso  1.000000 Au
   Au2716     1.0     0.447826      0.656521      0.586956     Biso  1.000000 Au
   Au2717     1.0     0.447826      0.691305      0.621738     Biso  1.000000 Au
   Au2718     1.0     0.482609      0.656521      0.621738     Biso  1.000000 Au
   Au2719     1.0     0.482609      0.691305      0.586956     Biso  1.000000 Au
   Au2720     1.0     0.517391      0.656521      0.586956     Biso  1.000000 Au
   Au2721     1.0     0.517391      0.691305      0.621738     Biso  1.000000 Au
   Au2722     1.0     0.552174      0.656521      0.621738     Biso  1.000000 Au
   Au2723     1.0     0.552174      0.691305      0.586956     Biso  1.000000 Au
   Au2724     1.0     0.586956      0.656521      0.586956     Biso  1.000000 Au
   Au2725     1.0     0.586956      0.691305      0.621738     Biso  1.000000 Au
   Au2726     1.0     0.621738      0.656521      0.621738     Biso  1.000000 Au
   Au2727     1.0     0.621738      0.691305      0.586956     Biso  1.000000 Au
   Au2728     1.0     0.656521      0.656521      0.586956     Biso  1.000000 Au
   Au2729     1.0     0.656521      0.691305      0.621738     Biso  1.000000 Au
   Au2730     1.0     0.691305      0.656521      0.621738     Biso  1.000000 Au
   Au2731     1.0     0.691305      0.691305      0.586956     Biso  1.000000 Au
   Au2732     1.0     0.726086      0.656521      0.586956     Biso  1.000000 Au
   Au2733     1.0     0.726086      0.691305      0.621738     Biso  1.000000 Au
   Au2734     1.0     0.760870      0.656521      0.621738     Biso  1.000000 Au
   Au2735     1.0     0.760870      0.691305      0.586956     Biso  1.000000 Au
   Au2736     1.0     0.795651      0.656521      0.586956     Biso  1.000000 Au
   Au2737     1.0     0.795651      0.691305      0.621738     Biso  1.000000 Au
   Au2738     1.0     0.830435      0.656521      0.621738     Biso  1.000000 Au
   Au2739     1.0     0.830435      0.691305      0.586956     Biso  1.000000 Au
   Au2740     1.0     0.865217      0.656521      0.586956     Biso  1.000000 Au
   Au2741     1.0     0.169565      0.726086      0.586956     Biso  1.000000 Au
   Au2742     1.0     0.204349      0.726086      0.621738     Biso  1.000000 Au
   Au2743     1.0     0.204349      0.760870      0.586956     Biso  1.000000 Au
   Au2744     1.0     0.239130      0.726086      0.586956     Biso  1.000000 Au
   Au2745     1.0     0.239130      0.760870      0.621738     Biso  1.000000 Au
   Au2746     1.0     0.273914      0.726086      0.621738     Biso  1.000000 Au
   Au2747     1.0     0.273914      0.760870      0.586956     Biso  1.000000 Au
   Au2748     1.0     0.308695      0.726086      0.586956     Biso  1.000000 Au
   Au2749     1.0     0.308695      0.760870      0.621738     Biso  1.000000 Au
   Au2750     1.0     0.343479      0.726086      0.621738     Biso  1.000000 Au
   Au2751     1.0     0.343479      0.760870      0.586956     Biso  1.000000 Au
   Au2752     1.0     0.378261      0.726086      0.586956     Biso  1.000000 Au
   Au2753     1.0     0.378261      0.760870      0.621738     Biso  1.000000 Au
   Au2754     1.0     0.413044      0.726086      0.621738     Biso  1.000000 Au
   Au2755     1.0     0.413044      0.760870      0.586956     Biso  1.000000 Au
   Au2756     1.0     0.447826      0.726086      0.586956     Biso  1.000000 Au
   Au2757     1.0     0.447826      0.760870      0.621738     Biso  1.000000 Au
   Au2758     1.0     0.482609      0.726086      0.621738     Biso  1.000000 Au
   Au2759     1.0     0.482609      0.760870      0.586956     Biso  1.000000 Au
   Au2760     1.0     0.517391      0.726086      0.586956     Biso  1.000000 Au
   Au2761     1.0     0.517391      0.760870      0.621738     Biso  1.000000 Au
   Au2762     1.0     0.552174      0.726086      0.621738     Biso  1.000000 Au
   Au2763     1.0     0.552174      0.760870      0.586956     Biso  1.000000 Au
   Au2764     1.0     0.586956      0.726086      0.586956     Biso  1.000000 Au
   Au2765     1.0     0.586956      0.760870      0.621738     Biso  1.000000 Au
   Au2766     1.0     0.621738      0.726086      0.621738     Biso  1.000000 Au
   Au2767     1.0     0.621738      0.760870      0.586956     Biso  1.000000 Au
   Au2768     1.0     0.656521      0.726086      0.586956     Biso  1.000000 Au
   Au2769     1.0     0.656521      0.760870      0.621738     Biso  1.000000 Au
   Au2770     1.0     0.691305      0.726086      0.621738     Biso  1.000000 Au
   Au2771     1.0     0.691305      0.760870      0.586956     Biso  1.000000 Au
   Au2772     1.0     0.726086      0.726086      0.586956     Biso  1.000000 Au
   Au2773     1.0     0.726086      0.760870      0.621738     Biso  1.000000 Au
   Au2774     1.0     0.760870      0.726086      0.621738     Biso  1.000000 Au
   Au2775     1.0     0.760870      0.760870      0.586956     Biso  1.000000 Au
   Au2776     1.0     0.795651      0.726086      0.586956     Biso  1.000000 Au
   Au2777     1.0     0.795651      0.760870      0.621738     Biso  1.000000 Au
   Au2778     1.0     0.830435      0.726086      0.621738     Biso  1.000000 Au
   Au2779     1.0     0.239130      0.795651      0.586956     Biso  1.000000 Au
   Au2780     1.0     0.273914      0.795651      0.621738     Biso  1.000000 Au
   Au2781     1.0     0.273914      0.830435      0.586956     Biso  1.000000 Au
   Au2782     1.0     0.308695      0.795651      0.586956     Biso  1.000000 Au
   Au2783     1.0     0.308695      0.830435      0.621738     Biso  1.000000 Au
   Au2784     1.0     0.343479      0.795651      0.621738     Biso  1.000000 Au
   Au2785     1.0     0.343479      0.830435      0.586956     Biso  1.000000 Au
   Au2786     1.0     0.378261      0.795651      0.586956     Biso  1.000000 Au
   Au2787     1.0     0.378261      0.830435      0.621738     Biso  1.000000 Au
   Au2788     1.0     0.413044      0.795651      0.621738     Biso  1.000000 Au
   Au2789     1.0     0.413044      0.830435      0.586956     Biso  1.000000 Au
   Au2790     1.0     0.447826      0.795651      0.586956     Biso  1.000000 Au
   Au2791     1.0     0.447826      0.830435      0.621738     Biso  1.000000 Au
   Au2792     1.0     0.482609      0.795651      0.621738     Biso  1.000000 Au
   Au2793     1.0     0.482609      0.830435      0.586956     Biso  1.000000 Au
   Au2794     1.0     0.517391      0.795651      0.586956     Biso  1.000000 Au
   Au2795     1.0     0.517391      0.830435      0.621738     Biso  1.000000 Au
   Au2796     1.0     0.552174      0.795651      0.621738     Biso  1.000000 Au
   Au2797     1.0     0.552174      0.830435      0.586956     Biso  1.000000 Au
   Au2798     1.0     0.586956      0.795651      0.586956     Biso  1.000000 Au
   Au2799     1.0     0.586956      0.830435      0.621738     Biso  1.000000 Au
   Au2800     1.0     0.621738      0.795651      0.621738     Biso  1.000000 Au
   Au2801     1.0     0.621738      0.830435      0.586956     Biso  1.000000 Au
   Au2802     1.0     0.656521      0.795651      0.586956     Biso  1.000000 Au
   Au2803     1.0     0.656521      0.830435      0.621738     Biso  1.000000 Au
   Au2804     1.0     0.691305      0.795651      0.621738     Biso  1.000000 Au
   Au2805     1.0     0.691305      0.830435      0.586956     Biso  1.000000 Au
   Au2806     1.0     0.726086      0.795651      0.586956     Biso  1.000000 Au
   Au2807     1.0     0.726086      0.830435      0.621738     Biso  1.000000 Au
   Au2808     1.0     0.760870      0.795651      0.621738     Biso  1.000000 Au
   Au2809     1.0     0.308695      0.865217      0.586956     Biso  1.000000 Au
   Au2810     1.0     0.343479      0.865217      0.621738     Biso  1.000000 Au
   Au2811     1.0     0.378261      0.865217      0.586956     Biso  1.000000 Au
   Au2812     1.0     0.413044      0.865217      0.621738     Biso  1.000000 Au
   Au2813     1.0     0.413044      0.900000      0.586956     Biso  1.000000 Au
   Au2814     1.0     0.447826      0.865217      0.586956     Biso  1.000000 Au
   Au2815     1.0     0.447826      0.900000      0.621738     Biso  1.000000 Au
   Au2816     1.0     0.482609      0.865217      0.621738     Biso  1.000000 Au
   Au2817     1.0     0.482609      0.900000      0.586956     Biso  1.000000 Au
   Au2818     1.0     0.517391      0.865217      0.586956     Biso  1.000000 Au
   Au2819     1.0     0.517391      0.900000      0.621738     Biso  1.000000 Au
   Au2820     1.0     0.552174      0.865217      0.621738     Biso  1.000000 Au
   Au2821     1.0     0.552174      0.900000      0.586956     Biso  1.000000 Au
   Au2822     1.0     0.586956      0.865217      0.586956     Biso  1.000000 Au
   Au2823     1.0     0.621738      0.865217      0.621738     Biso  1.000000 Au
   Au2824     1.0     0.656521      0.865217      0.586956     Biso  1.000000 Au
   Au2825     1.0     0.413044      0.134783      0.656521     Biso  1.000000 Au
   Au2826     1.0     0.447826      0.134783      0.691305     Biso  1.000000 Au
   Au2827     1.0     0.482609      0.134783      0.656521     Biso  1.000000 Au
   Au2828     1.0     0.517391      0.134783      0.691305     Biso  1.000000 Au
   Au2829     1.0     0.552174      0.134783      0.656521     Biso  1.000000 Au
   Au2830     1.0     0.586956      0.134783      0.691305     Biso  1.000000 Au
   Au2831     1.0     0.621738      0.134783      0.656521     Biso  1.000000 Au
   Au2832     1.0     0.273914      0.204349      0.656521     Biso  1.000000 Au
   Au2833     1.0     0.308695      0.169565      0.656521     Biso  1.000000 Au
   Au2834     1.0     0.308695      0.204349      0.691305     Biso  1.000000 Au
   Au2835     1.0     0.343479      0.169565      0.691305     Biso  1.000000 Au
   Au2836     1.0     0.343479      0.204349      0.656521     Biso  1.000000 Au
   Au2837     1.0     0.378261      0.169565      0.656521     Biso  1.000000 Au
   Au2838     1.0     0.378261      0.204349      0.691305     Biso  1.000000 Au
   Au2839     1.0     0.413044      0.169565      0.691305     Biso  1.000000 Au
   Au2840     1.0     0.413044      0.204349      0.656521     Biso  1.000000 Au
   Au2841     1.0     0.447826      0.169565      0.656521     Biso  1.000000 Au
   Au2842     1.0     0.447826      0.204349      0.691305     Biso  1.000000 Au
   Au2843     1.0     0.482609      0.169565      0.691305     Biso  1.000000 Au
   Au2844     1.0     0.482609      0.204349      0.656521     Biso  1.000000 Au
   Au2845     1.0     0.517391      0.169565      0.656521     Biso  1.000000 Au
   Au2846     1.0     0.517391      0.204349      0.691305     Biso  1.000000 Au
   Au2847     1.0     0.552174      0.169565      0.691305     Biso  1.000000 Au
   Au2848     1.0     0.552174      0.204349      0.656521     Biso  1.000000 Au
   Au2849     1.0     0.586956      0.169565      0.656521     Biso  1.000000 Au
   Au2850     1.0     0.586956      0.204349      0.691305     Biso  1.000000 Au
   Au2851     1.0     0.621738      0.169565      0.691305     Biso  1.000000 Au
   Au2852     1.0     0.621738      0.204349      0.656521     Biso  1.000000 Au
   Au2853     1.0     0.656521      0.169565      0.656521     Biso  1.000000 Au
   Au2854     1.0     0.656521      0.204349      0.691305     Biso  1.000000 Au
   Au2855     1.0     0.691305      0.204349      0.656521     Biso  1.000000 Au
   Au2856     1.0     0.726086      0.204349      0.691305     Biso  1.000000 Au
   Au2857     1.0     0.760870      0.204349      0.656521     Biso  1.000000 Au
   Au2858     1.0     0.204349      0.273914      0.656521     Biso  1.000000 Au
   Au2859     1.0     0.239130      0.239130      0.656521     Biso  1.000000 Au
   Au2860     1.0     0.239130      0.273914      0.691305     Biso  1.000000 Au
   Au2861     1.0     0.273914      0.239130      0.691305     Biso  1.000000 Au
   Au2862     1.0     0.273914      0.273914      0.656521     Biso  1.000000 Au
   Au2863     1.0     0.308695      0.239130      0.656521     Biso  1.000000 Au
   Au2864     1.0     0.308695      0.273914      0.691305     Biso  1.000000 Au
   Au2865     1.0     0.343479      0.239130      0.691305     Biso  1.000000 Au
   Au2866     1.0     0.343479      0.273914      0.656521     Biso  1.000000 Au
   Au2867     1.0     0.378261      0.239130      0.656521     Biso  1.000000 Au
   Au2868     1.0     0.378261      0.273914      0.691305     Biso  1.000000 Au
   Au2869     1.0     0.413044      0.239130      0.691305     Biso  1.000000 Au
   Au2870     1.0     0.413044      0.273914      0.656521     Biso  1.000000 Au
   Au2871     1.0     0.447826      0.239130      0.656521     Biso  1.000000 Au
   Au2872     1.0     0.447826      0.273914      0.691305     Biso  1.000000 Au
   Au2873     1.0     0.482609      0.239130      0.691305     Biso  1.000000 Au
   Au2874     1.0     0.482609      0.273914      0.656521     Biso  1.000000 Au
   Au2875     1.0     0.517391      0.239130      0.656521     Biso  1.000000 Au
   Au2876     1.0     0.517391      0.273914      0.691305     Biso  1.000000 Au
   Au2877     1.0     0.552174      0.239130      0.691305     Biso  1.000000 Au
   Au2878     1.0     0.552174      0.273914      0.656521     Biso  1.000000 Au
   Au2879     1.0     0.586956      0.239130      0.656521     Biso  1.000000 Au
   Au2880     1.0     0.586956      0.273914      0.691305     Biso  1.000000 Au
   Au2881     1.0     0.621738      0.239130      0.691305     Biso  1.000000 Au
   Au2882     1.0     0.621738      0.273914      0.656521     Biso  1.000000 Au
   Au2883     1.0     0.656521      0.239130      0.656521     Biso  1.000000 Au
   Au2884     1.0     0.656521      0.273914      0.691305     Biso  1.000000 Au
   Au2885     1.0     0.691305      0.239130      0.691305     Biso  1.000000 Au
   Au2886     1.0     0.691305      0.273914      0.656521     Biso  1.000000 Au
   Au2887     1.0     0.726086      0.239130      0.656521     Biso  1.000000 Au
   Au2888     1.0     0.726086      0.273914      0.691305     Biso  1.000000 Au
   Au2889     1.0     0.760870      0.239130      0.691305     Biso  1.000000 Au
   Au2890     1.0     0.760870      0.273914      0.656521     Biso  1.000000 Au
   Au2891     1.0     0.795651      0.239130      0.656521     Biso  1.000000 Au
   Au2892     1.0     0.795651      0.273914      0.691305     Biso  1.000000 Au
   Au2893     1.0     0.169565      0.308695      0.656521     Biso  1.000000 Au
   Au2894     1.0     0.169565      0.343479      0.691305     Biso  1.000000 Au
   Au2895     1.0     0.204349      0.308695      0.691305     Biso  1.000000 Au
   Au2896     1.0     0.204349      0.343479      0.656521     Biso  1.000000 Au
   Au2897     1.0     0.239130      0.308695      0.656521     Biso  1.000000 Au
   Au2898     1.0     0.239130      0.343479      0.691305     Biso  1.000000 Au
   Au2899     1.0     0.273914      0.308695      0.691305     Biso  1.000000 Au
   Au2900     1.0     0.273914      0.343479      0.656521     Biso  1.000000 Au
   Au2901     1.0     0.308695      0.308695      0.656521     Biso  1.000000 Au
   Au2902     1.0     0.308695      0.343479      0.691305     Biso  1.000000 Au
   Au2903     1.0     0.343479      0.308695      0.691305     Biso  1.000000 Au
   Au2904     1.0     0.343479      0.343479      0.656521     Biso  1.000000 Au
   Au2905     1.0     0.378261      0.308695      0.656521     Biso  1.000000 Au
   Au2906     1.0     0.378261      0.343479      0.691305     Biso  1.000000 Au
   Au2907     1.0     0.413044      0.308695      0.691305     Biso  1.000000 Au
   Au2908     1.0     0.413044      0.343479      0.656521     Biso  1.000000 Au
   Au2909     1.0     0.447826      0.308695      0.656521     Biso  1.000000 Au
   Au2910     1.0     0.447826      0.343479      0.691305     Biso  1.000000 Au
   Au2911     1.0     0.482609      0.308695      0.691305     Biso  1.000000 Au
   Au2912     1.0     0.482609      0.343479      0.656521     Biso  1.000000 Au
   Au2913     1.0     0.517391      0.308695      0.656521     Biso  1.000000 Au
   Au2914     1.0     0.517391      0.343479      0.691305     Biso  1.000000 Au
   Au2915     1.0     0.552174      0.308695      0.691305     Biso  1.000000 Au
   Au2916     1.0     0.552174      0.343479      0.656521     Biso  1.000000 Au
   Au2917     1.0     0.586956      0.308695      0.656521     Biso  1.000000 Au
   Au2918     1.0     0.586956      0.343479      0.691305     Biso  1.000000 Au
   Au2919     1.0     0.621738      0.308695      0.691305     Biso  1.000000 Au
   Au2920     1.0     0.621738      0.343479      0.656521     Biso  1.000000 Au
   Au2921     1.0     0.656521      0.308695      0.656521     Biso  1.000000 Au
   Au2922     1.0     0.656521      0.343479      0.691305     Biso  1.000000 Au
   Au2923     1.0     0.691305      0.308695      0.691305     Biso  1.000000 Au
   Au2924     1.0     0.691305      0.343479      0.656521     Biso  1.000000 Au
   Au2925     1.0     0.726086      0.308695      0.656521     Biso  1.000000 Au
   Au2926     1.0     0.726086      0.343479      0.691305     Biso  1.000000 Au
   Au2927     1.0     0.760870      0.308695      0.691305     Biso  1.000000 Au
   Au2928     1.0     0.760870      0.343479      0.656521     Biso  1.000000 Au
   Au2929     1.0     0.795651      0.308695      0.656521     Biso  1.000000 Au
   Au2930     1.0     0.795651      0.343479      0.691305     Biso  1.000000 Au
   Au2931     1.0     0.830435      0.343479      0.656521     Biso  1.000000 Au
   Au2932     1.0     0.134783      0.413044      0.656521     Biso  1.000000 Au
   Au2933     1.0     0.169565      0.378261      0.656521     Biso  1.000000 Au
   Au2934     1.0     0.169565      0.413044      0.691305     Biso  1.000000 Au
   Au2935     1.0     0.204349      0.378261      0.691305     Biso  1.000000 Au
   Au2936     1.0     0.204349      0.413044      0.656521     Biso  1.000000 Au
   Au2937     1.0     0.239130      0.378261      0.656521     Biso  1.000000 Au
   Au2938     1.0     0.239130      0.413044      0.691305     Biso  1.000000 Au
   Au2939     1.0     0.273914      0.378261      0.691305     Biso  1.000000 Au
   Au2940     1.0     0.273914      0.413044      0.656521     Biso  1.000000 Au
   Au2941     1.0     0.308695      0.378261      0.656521     Biso  1.000000 Au
   Au2942     1.0     0.308695      0.413044      0.691305     Biso  1.000000 Au
   Au2943     1.0     0.343479      0.378261      0.691305     Biso  1.000000 Au
   Au2944     1.0     0.343479      0.413044      0.656521     Biso  1.000000 Au
   Au2945     1.0     0.378261      0.378261      0.656521     Biso  1.000000 Au
   Au2946     1.0     0.378261      0.413044      0.691305     Biso  1.000000 Au
   Au2947     1.0     0.413044      0.378261      0.691305     Biso  1.000000 Au
   Au2948     1.0     0.413044      0.413044      0.656521     Biso  1.000000 Au
   Au2949     1.0     0.447826      0.378261      0.656521     Biso  1.000000 Au
   Au2950     1.0     0.447826      0.413044      0.691305     Biso  1.000000 Au
   Au2951     1.0     0.482609      0.378261      0.691305     Biso  1.000000 Au
   Au2952     1.0     0.482609      0.413044      0.656521     Biso  1.000000 Au
   Au2953     1.0     0.517391      0.378261      0.656521     Biso  1.000000 Au
   Au2954     1.0     0.517391      0.413044      0.691305     Biso  1.000000 Au
   Au2955     1.0     0.552174      0.378261      0.691305     Biso  1.000000 Au
   Au2956     1.0     0.552174      0.413044      0.656521     Biso  1.000000 Au
   Au2957     1.0     0.586956      0.378261      0.656521     Biso  1.000000 Au
   Au2958     1.0     0.586956      0.413044      0.691305     Biso  1.000000 Au
   Au2959     1.0     0.621738      0.378261      0.691305     Biso  1.000000 Au
   Au2960     1.0     0.621738      0.413044      0.656521     Biso  1.000000 Au
   Au2961     1.0     0.656521      0.378261      0.656521     Biso  1.000000 Au
   Au2962     1.0     0.656521      0.413044      0.691305     Biso  1.000000 Au
   Au2963     1.0     0.691305      0.378261      0.691305     Biso  1.000000 Au
   Au2964     1.0     0.691305      0.413044      0.656521     Biso  1.000000 Au
   Au2965     1.0     0.726086      0.378261      0.656521     Biso  1.000000 Au
   Au2966     1.0     0.726086      0.413044      0.691305     Biso  1.000000 Au
   Au2967     1.0     0.760870      0.378261      0.691305     Biso  1.000000 Au
   Au2968     1.0     0.760870      0.413044      0.656521     Biso  1.000000 Au
   Au2969     1.0     0.795651      0.378261      0.656521     Biso  1.000000 Au
   Au2970     1.0     0.795651      0.413044      0.691305     Biso  1.000000 Au
   Au2971     1.0     0.830435      0.378261      0.691305     Biso  1.000000 Au
   Au2972     1.0     0.830435      0.413044      0.656521     Biso  1.000000 Au
   Au2973     1.0     0.865217      0.378261      0.656521     Biso  1.000000 Au
   Au2974     1.0     0.865217      0.413044      0.691305     Biso  1.000000 Au
   Au2975     1.0     0.134783      0.447826      0.691305     Biso  1.000000 Au
   Au2976     1.0     0.134783      0.482609      0.656521     Biso  1.000000 Au
   Au2977     1.0     0.169565      0.447826      0.656521     Biso  1.000000 Au
   Au2978     1.0     0.169565      0.482609      0.691305     Biso  1.000000 Au
   Au2979     1.0     0.204349      0.447826      0.691305     Biso  1.000000 Au
   Au2980     1.0     0.204349      0.482609      0.656521     Biso  1.000000 Au
   Au2981     1.0     0.239130      0.447826      0.656521     Biso  1.000000 Au
   Au2982     1.0     0.239130      0.482609      0.691305     Biso  1.000000 Au
   Au2983     1.0     0.273914      0.447826      0.691305     Biso  1.000000 Au
   Au2984     1.0     0.273914      0.482609      0.656521     Biso  1.000000 Au
   Au2985     1.0     0.308695      0.447826      0.656521     Biso  1.000000 Au
   Au2986     1.0     0.308695      0.482609      0.691305     Biso  1.000000 Au
   Au2987     1.0     0.343479      0.447826      0.691305     Biso  1.000000 Au
   Au2988     1.0     0.343479      0.482609      0.656521     Biso  1.000000 Au
   Au2989     1.0     0.378261      0.447826      0.656521     Biso  1.000000 Au
   Au2990     1.0     0.378261      0.482609      0.691305     Biso  1.000000 Au
   Au2991     1.0     0.413044      0.447826      0.691305     Biso  1.000000 Au
   Au2992     1.0     0.413044      0.482609      0.656521     Biso  1.000000 Au
   Au2993     1.0     0.447826      0.447826      0.656521     Biso  1.000000 Au
   Au2994     1.0     0.447826      0.482609      0.691305     Biso  1.000000 Au
   Au2995     1.0     0.482609      0.447826      0.691305     Biso  1.000000 Au
   Au2996     1.0     0.482609      0.482609      0.656521     Biso  1.000000 Au
   Au2997     1.0     0.517391      0.447826      0.656521     Biso  1.000000 Au
   Au2998     1.0     0.517391      0.482609      0.691305     Biso  1.000000 Au
   Au2999     1.0     0.552174      0.447826      0.691305     Biso  1.000000 Au
   Au3000     1.0     0.552174      0.482609      0.656521     Biso  1.000000 Au
   Au3001     1.0     0.586956      0.447826      0.656521     Biso  1.000000 Au
   Au3002     1.0     0.586956      0.482609      0.691305     Biso  1.000000 Au
   Au3003     1.0     0.621738      0.447826      0.691305     Biso  1.000000 Au
   Au3004     1.0     0.621738      0.482609      0.656521     Biso  1.000000 Au
   Au3005     1.0     0.656521      0.447826      0.656521     Biso  1.000000 Au
   Au3006     1.0     0.656521      0.482609      0.691305     Biso  1.000000 Au
   Au3007     1.0     0.691305      0.447826      0.691305     Biso  1.000000 Au
   Au3008     1.0     0.691305      0.482609      0.656521     Biso  1.000000 Au
   Au3009     1.0     0.726086      0.447826      0.656521     Biso  1.000000 Au
   Au3010     1.0     0.726086      0.482609      0.691305     Biso  1.000000 Au
   Au3011     1.0     0.760870      0.447826      0.691305     Biso  1.000000 Au
   Au3012     1.0     0.760870      0.482609      0.656521     Biso  1.000000 Au
   Au3013     1.0     0.795651      0.447826      0.656521     Biso  1.000000 Au
   Au3014     1.0     0.795651      0.482609      0.691305     Biso  1.000000 Au
   Au3015     1.0     0.830435      0.447826      0.691305     Biso  1.000000 Au
   Au3016     1.0     0.830435      0.482609      0.656521     Biso  1.000000 Au
   Au3017     1.0     0.865217      0.447826      0.656521     Biso  1.000000 Au
   Au3018     1.0     0.865217      0.482609      0.691305     Biso  1.000000 Au
   Au3019     1.0     0.134783      0.517391      0.691305     Biso  1.000000 Au
   Au3020     1.0     0.134783      0.552174      0.656521     Biso  1.000000 Au
   Au3021     1.0     0.169565      0.517391      0.656521     Biso  1.000000 Au
   Au3022     1.0     0.169565      0.552174      0.691305     Biso  1.000000 Au
   Au3023     1.0     0.204349      0.517391      0.691305     Biso  1.000000 Au
   Au3024     1.0     0.204349      0.552174      0.656521     Biso  1.000000 Au
   Au3025     1.0     0.239130      0.517391      0.656521     Biso  1.000000 Au
   Au3026     1.0     0.239130      0.552174      0.691305     Biso  1.000000 Au
   Au3027     1.0     0.273914      0.517391      0.691305     Biso  1.000000 Au
   Au3028     1.0     0.273914      0.552174      0.656521     Biso  1.000000 Au
   Au3029     1.0     0.308695      0.517391      0.656521     Biso  1.000000 Au
   Au3030     1.0     0.308695      0.552174      0.691305     Biso  1.000000 Au
   Au3031     1.0     0.343479      0.517391      0.691305     Biso  1.000000 Au
   Au3032     1.0     0.343479      0.552174      0.656521     Biso  1.000000 Au
   Au3033     1.0     0.378261      0.517391      0.656521     Biso  1.000000 Au
   Au3034     1.0     0.378261      0.552174      0.691305     Biso  1.000000 Au
   Au3035     1.0     0.413044      0.517391      0.691305     Biso  1.000000 Au
   Au3036     1.0     0.413044      0.552174      0.656521     Biso  1.000000 Au
   Au3037     1.0     0.447826      0.517391      0.656521     Biso  1.000000 Au
   Au3038     1.0     0.447826      0.552174      0.691305     Biso  1.000000 Au
   Au3039     1.0     0.482609      0.517391      0.691305     Biso  1.000000 Au
   Au3040     1.0     0.482609      0.552174      0.656521     Biso  1.000000 Au
   Au3041     1.0     0.517391      0.517391      0.656521     Biso  1.000000 Au
   Au3042     1.0     0.517391      0.552174      0.691305     Biso  1.000000 Au
   Au3043     1.0     0.552174      0.517391      0.691305     Biso  1.000000 Au
   Au3044     1.0     0.552174      0.552174      0.656521     Biso  1.000000 Au
   Au3045     1.0     0.586956      0.517391      0.656521     Biso  1.000000 Au
   Au3046     1.0     0.586956      0.552174      0.691305     Biso  1.000000 Au
   Au3047     1.0     0.621738      0.517391      0.691305     Biso  1.000000 Au
   Au3048     1.0     0.621738      0.552174      0.656521     Biso  1.000000 Au
   Au3049     1.0     0.656521      0.517391      0.656521     Biso  1.000000 Au
   Au3050     1.0     0.656521      0.552174      0.691305     Biso  1.000000 Au
   Au3051     1.0     0.691305      0.517391      0.691305     Biso  1.000000 Au
   Au3052     1.0     0.691305      0.552174      0.656521     Biso  1.000000 Au
   Au3053     1.0     0.726086      0.517391      0.656521     Biso  1.000000 Au
   Au3054     1.0     0.726086      0.552174      0.691305     Biso  1.000000 Au
   Au3055     1.0     0.760870      0.517391      0.691305     Biso  1.000000 Au
   Au3056     1.0     0.760870      0.552174      0.656521     Biso  1.000000 Au
   Au3057     1.0     0.795651      0.517391      0.656521     Biso  1.000000 Au
   Au3058     1.0     0.795651      0.552174      0.691305     Biso  1.000000 Au
   Au3059     1.0     0.830435      0.517391      0.691305     Biso  1.000000 Au
   Au3060     1.0     0.830435      0.552174      0.656521     Biso  1.000000 Au
   Au3061     1.0     0.865217      0.517391      0.656521     Biso  1.000000 Au
   Au3062     1.0     0.865217      0.552174      0.691305     Biso  1.000000 Au
   Au3063     1.0     0.134783      0.586956      0.691305     Biso  1.000000 Au
   Au3064     1.0     0.134783      0.621738      0.656521     Biso  1.000000 Au
   Au3065     1.0     0.169565      0.586956      0.656521     Biso  1.000000 Au
   Au3066     1.0     0.169565      0.621738      0.691305     Biso  1.000000 Au
   Au3067     1.0     0.204349      0.586956      0.691305     Biso  1.000000 Au
   Au3068     1.0     0.204349      0.621738      0.656521     Biso  1.000000 Au
   Au3069     1.0     0.239130      0.586956      0.656521     Biso  1.000000 Au
   Au3070     1.0     0.239130      0.621738      0.691305     Biso  1.000000 Au
   Au3071     1.0     0.273914      0.586956      0.691305     Biso  1.000000 Au
   Au3072     1.0     0.273914      0.621738      0.656521     Biso  1.000000 Au
   Au3073     1.0     0.308695      0.586956      0.656521     Biso  1.000000 Au
   Au3074     1.0     0.308695      0.621738      0.691305     Biso  1.000000 Au
   Au3075     1.0     0.343479      0.586956      0.691305     Biso  1.000000 Au
   Au3076     1.0     0.343479      0.621738      0.656521     Biso  1.000000 Au
   Au3077     1.0     0.378261      0.586956      0.656521     Biso  1.000000 Au
   Au3078     1.0     0.378261      0.621738      0.691305     Biso  1.000000 Au
   Au3079     1.0     0.413044      0.586956      0.691305     Biso  1.000000 Au
   Au3080     1.0     0.413044      0.621738      0.656521     Biso  1.000000 Au
   Au3081     1.0     0.447826      0.586956      0.656521     Biso  1.000000 Au
   Au3082     1.0     0.447826      0.621738      0.691305     Biso  1.000000 Au
   Au3083     1.0     0.482609      0.586956      0.691305     Biso  1.000000 Au
   Au3084     1.0     0.482609      0.621738      0.656521     Biso  1.000000 Au
   Au3085     1.0     0.517391      0.586956      0.656521     Biso  1.000000 Au
   Au3086     1.0     0.517391      0.621738      0.691305     Biso  1.000000 Au
   Au3087     1.0     0.552174      0.586956      0.691305     Biso  1.000000 Au
   Au3088     1.0     0.552174      0.621738      0.656521     Biso  1.000000 Au
   Au3089     1.0     0.586956      0.586956      0.656521     Biso  1.000000 Au
   Au3090     1.0     0.586956      0.621738      0.691305     Biso  1.000000 Au
   Au3091     1.0     0.621738      0.586956      0.691305     Biso  1.000000 Au
   Au3092     1.0     0.621738      0.621738      0.656521     Biso  1.000000 Au
   Au3093     1.0     0.656521      0.586956      0.656521     Biso  1.000000 Au
   Au3094     1.0     0.656521      0.621738      0.691305     Biso  1.000000 Au
   Au3095     1.0     0.691305      0.586956      0.691305     Biso  1.000000 Au
   Au3096     1.0     0.691305      0.621738      0.656521     Biso  1.000000 Au
   Au3097     1.0     0.726086      0.586956      0.656521     Biso  1.000000 Au
   Au3098     1.0     0.726086      0.621738      0.691305     Biso  1.000000 Au
   Au3099     1.0     0.760870      0.586956      0.691305     Biso  1.000000 Au
   Au3100     1.0     0.760870      0.621738      0.656521     Biso  1.000000 Au
   Au3101     1.0     0.795651      0.586956      0.656521     Biso  1.000000 Au
   Au3102     1.0     0.795651      0.621738      0.691305     Biso  1.000000 Au
   Au3103     1.0     0.830435      0.586956      0.691305     Biso  1.000000 Au
   Au3104     1.0     0.830435      0.621738      0.656521     Biso  1.000000 Au
   Au3105     1.0     0.865217      0.586956      0.656521     Biso  1.000000 Au
   Au3106     1.0     0.169565      0.656521      0.656521     Biso  1.000000 Au
   Au3107     1.0     0.204349      0.656521      0.691305     Biso  1.000000 Au
   Au3108     1.0     0.204349      0.691305      0.656521     Biso  1.000000 Au
   Au3109     1.0     0.239130      0.656521      0.656521     Biso  1.000000 Au
   Au3110     1.0     0.239130      0.691305      0.691305     Biso  1.000000 Au
   Au3111     1.0     0.273914      0.656521      0.691305     Biso  1.000000 Au
   Au3112     1.0     0.273914      0.691305      0.656521     Biso  1.000000 Au
   Au3113     1.0     0.308695      0.656521      0.656521     Biso  1.000000 Au
   Au3114     1.0     0.308695      0.691305      0.691305     Biso  1.000000 Au
   Au3115     1.0     0.343479      0.656521      0.691305     Biso  1.000000 Au
   Au3116     1.0     0.343479      0.691305      0.656521     Biso  1.000000 Au
   Au3117     1.0     0.378261      0.656521      0.656521     Biso  1.000000 Au
   Au3118     1.0     0.378261      0.691305      0.691305     Biso  1.000000 Au
   Au3119     1.0     0.413044      0.656521      0.691305     Biso  1.000000 Au
   Au3120     1.0     0.413044      0.691305      0.656521     Biso  1.000000 Au
   Au3121     1.0     0.447826      0.656521      0.656521     Biso  1.000000 Au
   Au3122     1.0     0.447826      0.691305      0.691305     Biso  1.000000 Au
   Au3123     1.0     0.482609      0.656521      0.691305     Biso  1.000000 Au
   Au3124     1.0     0.482609      0.691305      0.656521     Biso  1.000000 Au
   Au3125     1.0     0.517391      0.656521      0.656521     Biso  1.000000 Au
   Au3126     1.0     0.517391      0.691305      0.691305     Biso  1.000000 Au
   Au3127     1.0     0.552174      0.656521      0.691305     Biso  1.000000 Au
   Au3128     1.0     0.552174      0.691305      0.656521     Biso  1.000000 Au
   Au3129     1.0     0.586956      0.656521      0.656521     Biso  1.000000 Au
   Au3130     1.0     0.586956      0.691305      0.691305     Biso  1.000000 Au
   Au3131     1.0     0.621738      0.656521      0.691305     Biso  1.000000 Au
   Au3132     1.0     0.621738      0.691305      0.656521     Biso  1.000000 Au
   Au3133     1.0     0.656521      0.656521      0.656521     Biso  1.000000 Au
   Au3134     1.0     0.656521      0.691305      0.691305     Biso  1.000000 Au
   Au3135     1.0     0.691305      0.656521      0.691305     Biso  1.000000 Au
   Au3136     1.0     0.691305      0.691305      0.656521     Biso  1.000000 Au
   Au3137     1.0     0.726086      0.656521      0.656521     Biso  1.000000 Au
   Au3138     1.0     0.726086      0.691305      0.691305     Biso  1.000000 Au
   Au3139     1.0     0.760870      0.656521      0.691305     Biso  1.000000 Au
   Au3140     1.0     0.760870      0.691305      0.656521     Biso  1.000000 Au
   Au3141     1.0     0.795651      0.656521      0.656521     Biso  1.000000 Au
   Au3142     1.0     0.795651      0.691305      0.691305     Biso  1.000000 Au
   Au3143     1.0     0.830435      0.656521      0.691305     Biso  1.000000 Au
   Au3144     1.0     0.830435      0.691305      0.656521     Biso  1.000000 Au
   Au3145     1.0     0.204349      0.726086      0.691305     Biso  1.000000 Au
   Au3146     1.0     0.204349      0.760870      0.656521     Biso  1.000000 Au
   Au3147     1.0     0.239130      0.726086      0.656521     Biso  1.000000 Au
   Au3148     1.0     0.239130      0.760870      0.691305     Biso  1.000000 Au
   Au3149     1.0     0.273914      0.726086      0.691305     Biso  1.000000 Au
   Au3150     1.0     0.273914      0.760870      0.656521     Biso  1.000000 Au
   Au3151     1.0     0.308695      0.726086      0.656521     Biso  1.000000 Au
   Au3152     1.0     0.308695      0.760870      0.691305     Biso  1.000000 Au
   Au3153     1.0     0.343479      0.726086      0.691305     Biso  1.000000 Au
   Au3154     1.0     0.343479      0.760870      0.656521     Biso  1.000000 Au
   Au3155     1.0     0.378261      0.726086      0.656521     Biso  1.000000 Au
   Au3156     1.0     0.378261      0.760870      0.691305     Biso  1.000000 Au
   Au3157     1.0     0.413044      0.726086      0.691305     Biso  1.000000 Au
   Au3158     1.0     0.413044      0.760870      0.656521     Biso  1.000000 Au
   Au3159     1.0     0.447826      0.726086      0.656521     Biso  1.000000 Au
   Au3160     1.0     0.447826      0.760870      0.691305     Biso  1.000000 Au
   Au3161     1.0     0.482609      0.726086      0.691305     Biso  1.000000 Au
   Au3162     1.0     0.482609      0.760870      0.656521     Biso  1.000000 Au
   Au3163     1.0     0.517391      0.726086      0.656521     Biso  1.000000 Au
   Au3164     1.0     0.517391      0.760870      0.691305     Biso  1.000000 Au
   Au3165     1.0     0.552174      0.726086      0.691305     Biso  1.000000 Au
   Au3166     1.0     0.552174      0.760870      0.656521     Biso  1.000000 Au
   Au3167     1.0     0.586956      0.726086      0.656521     Biso  1.000000 Au
   Au3168     1.0     0.586956      0.760870      0.691305     Biso  1.000000 Au
   Au3169     1.0     0.621738      0.726086      0.691305     Biso  1.000000 Au
   Au3170     1.0     0.621738      0.760870      0.656521     Biso  1.000000 Au
   Au3171     1.0     0.656521      0.726086      0.656521     Biso  1.000000 Au
   Au3172     1.0     0.656521      0.760870      0.691305     Biso  1.000000 Au
   Au3173     1.0     0.691305      0.726086      0.691305     Biso  1.000000 Au
   Au3174     1.0     0.691305      0.760870      0.656521     Biso  1.000000 Au
   Au3175     1.0     0.726086      0.726086      0.656521     Biso  1.000000 Au
   Au3176     1.0     0.726086      0.760870      0.691305     Biso  1.000000 Au
   Au3177     1.0     0.760870      0.726086      0.691305     Biso  1.000000 Au
   Au3178     1.0     0.760870      0.760870      0.656521     Biso  1.000000 Au
   Au3179     1.0     0.795651      0.726086      0.656521     Biso  1.000000 Au
   Au3180     1.0     0.239130      0.795651      0.656521     Biso  1.000000 Au
   Au3181     1.0     0.273914      0.795651      0.691305     Biso  1.000000 Au
   Au3182     1.0     0.308695      0.795651      0.656521     Biso  1.000000 Au
   Au3183     1.0     0.343479      0.795651      0.691305     Biso  1.000000 Au
   Au3184     1.0     0.343479      0.830435      0.656521     Biso  1.000000 Au
   Au3185     1.0     0.378261      0.795651      0.656521     Biso  1.000000 Au
   Au3186     1.0     0.378261      0.830435      0.691305     Biso  1.000000 Au
   Au3187     1.0     0.413044      0.795651      0.691305     Biso  1.000000 Au
   Au3188     1.0     0.413044      0.830435      0.656521     Biso  1.000000 Au
   Au3189     1.0     0.447826      0.795651      0.656521     Biso  1.000000 Au
   Au3190     1.0     0.447826      0.830435      0.691305     Biso  1.000000 Au
   Au3191     1.0     0.482609      0.795651      0.691305     Biso  1.000000 Au
   Au3192     1.0     0.482609      0.830435      0.656521     Biso  1.000000 Au
   Au3193     1.0     0.517391      0.795651      0.656521     Biso  1.000000 Au
   Au3194     1.0     0.517391      0.830435      0.691305     Biso  1.000000 Au
   Au3195     1.0     0.552174      0.795651      0.691305     Biso  1.000000 Au
   Au3196     1.0     0.552174      0.830435      0.656521     Biso  1.000000 Au
   Au3197     1.0     0.586956      0.795651      0.656521     Biso  1.000000 Au
   Au3198     1.0     0.586956      0.830435      0.691305     Biso  1.000000 Au
   Au3199     1.0     0.621738      0.795651      0.691305     Biso  1.000000 Au
   Au3200     1.0     0.621738      0.830435      0.656521     Biso  1.000000 Au
   Au3201     1.0     0.656521      0.795651      0.656521     Biso  1.000000 Au
   Au3202     1.0     0.656521      0.830435      0.691305     Biso  1.000000 Au
   Au3203     1.0     0.691305      0.795651      0.691305     Biso  1.000000 Au
   Au3204     1.0     0.691305      0.830435      0.656521     Biso  1.000000 Au
   Au3205     1.0     0.726086      0.795651      0.656521     Biso  1.000000 Au
   Au3206     1.0     0.378261      0.865217      0.656521     Biso  1.000000 Au
   Au3207     1.0     0.413044      0.865217      0.691305     Biso  1.000000 Au
   Au3208     1.0     0.447826      0.865217      0.656521     Biso  1.000000 Au
   Au3209     1.0     0.482609      0.865217      0.691305     Biso  1.000000 Au
   Au3210     1.0     0.517391      0.865217      0.656521     Biso  1.000000 Au
   Au3211     1.0     0.552174      0.865217      0.691305     Biso  1.000000 Au
   Au3212     1.0     0.586956      0.865217      0.656521     Biso  1.000000 Au
   Au3213     1.0     0.343479      0.204349      0.726086     Biso  1.000000 Au
   Au3214     1.0     0.378261      0.169565      0.726086     Biso  1.000000 Au
   Au3215     1.0     0.378261      0.204349      0.760870     Biso  1.000000 Au
   Au3216     1.0     0.413044      0.204349      0.726086     Biso  1.000000 Au
   Au3217     1.0     0.447826      0.169565      0.726086     Biso  1.000000 Au
   Au3218     1.0     0.447826      0.204349      0.760870     Biso  1.000000 Au
   Au3219     1.0     0.482609      0.169565      0.760870     Biso  1.000000 Au
   Au3220     1.0     0.482609      0.204349      0.726086     Biso  1.000000 Au
   Au3221     1.0     0.517391      0.169565      0.726086     Biso  1.000000 Au
   Au3222     1.0     0.517391      0.204349      0.760870     Biso  1.000000 Au
   Au3223     1.0     0.552174      0.169565      0.760870     Biso  1.000000 Au
   Au3224     1.0     0.552174      0.204349      0.726086     Biso  1.000000 Au
   Au3225     1.0     0.586956      0.169565      0.726086     Biso  1.000000 Au
   Au3226     1.0     0.586956      0.204349      0.760870     Biso  1.000000 Au
   Au3227     1.0     0.621738      0.204349      0.726086     Biso  1.000000 Au
   Au3228     1.0     0.656521      0.204349      0.760870     Biso  1.000000 Au
   Au3229     1.0     0.691305      0.204349      0.726086     Biso  1.000000 Au
   Au3230     1.0     0.273914      0.273914      0.726086     Biso  1.000000 Au
   Au3231     1.0     0.308695      0.239130      0.726086     Biso  1.000000 Au
   Au3232     1.0     0.308695      0.273914      0.760870     Biso  1.000000 Au
   Au3233     1.0     0.343479      0.239130      0.760870     Biso  1.000000 Au
   Au3234     1.0     0.343479      0.273914      0.726086     Biso  1.000000 Au
   Au3235     1.0     0.378261      0.239130      0.726086     Biso  1.000000 Au
   Au3236     1.0     0.378261      0.273914      0.760870     Biso  1.000000 Au
   Au3237     1.0     0.413044      0.239130      0.760870     Biso  1.000000 Au
   Au3238     1.0     0.413044      0.273914      0.726086     Biso  1.000000 Au
   Au3239     1.0     0.447826      0.239130      0.726086     Biso  1.000000 Au
   Au3240     1.0     0.447826      0.273914      0.760870     Biso  1.000000 Au
   Au3241     1.0     0.482609      0.239130      0.760870     Biso  1.000000 Au
   Au3242     1.0     0.482609      0.273914      0.726086     Biso  1.000000 Au
   Au3243     1.0     0.517391      0.239130      0.726086     Biso  1.000000 Au
   Au3244     1.0     0.517391      0.273914      0.760870     Biso  1.000000 Au
   Au3245     1.0     0.552174      0.239130      0.760870     Biso  1.000000 Au
   Au3246     1.0     0.552174      0.273914      0.726086     Biso  1.000000 Au
   Au3247     1.0     0.586956      0.239130      0.726086     Biso  1.000000 Au
   Au3248     1.0     0.586956      0.273914      0.760870     Biso  1.000000 Au
   Au3249     1.0     0.621738      0.239130      0.760870     Biso  1.000000 Au
   Au3250     1.0     0.621738      0.273914      0.726086     Biso  1.000000 Au
   Au3251     1.0     0.656521      0.239130      0.726086     Biso  1.000000 Au
   Au3252     1.0     0.656521      0.273914      0.760870     Biso  1.000000 Au
   Au3253     1.0     0.691305      0.239130      0.760870     Biso  1.000000 Au
   Au3254     1.0     0.691305      0.273914      0.726086     Biso  1.000000 Au
   Au3255     1.0     0.726086      0.239130      0.726086     Biso  1.000000 Au
   Au3256     1.0     0.726086      0.273914      0.760870     Biso  1.000000 Au
   Au3257     1.0     0.760870      0.273914      0.726086     Biso  1.000000 Au
   Au3258     1.0     0.204349      0.343479      0.726086     Biso  1.000000 Au
   Au3259     1.0     0.239130      0.308695      0.726086     Biso  1.000000 Au
   Au3260     1.0     0.239130      0.343479      0.760870     Biso  1.000000 Au
   Au3261     1.0     0.273914      0.308695      0.760870     Biso  1.000000 Au
   Au3262     1.0     0.273914      0.343479      0.726086     Biso  1.000000 Au
   Au3263     1.0     0.308695      0.308695      0.726086     Biso  1.000000 Au
   Au3264     1.0     0.308695      0.343479      0.760870     Biso  1.000000 Au
   Au3265     1.0     0.343479      0.308695      0.760870     Biso  1.000000 Au
   Au3266     1.0     0.343479      0.343479      0.726086     Biso  1.000000 Au
   Au3267     1.0     0.378261      0.308695      0.726086     Biso  1.000000 Au
   Au3268     1.0     0.378261      0.343479      0.760870     Biso  1.000000 Au
   Au3269     1.0     0.413044      0.308695      0.760870     Biso  1.000000 Au
   Au3270     1.0     0.413044      0.343479      0.726086     Biso  1.000000 Au
   Au3271     1.0     0.447826      0.308695      0.726086     Biso  1.000000 Au
   Au3272     1.0     0.447826      0.343479      0.760870     Biso  1.000000 Au
   Au3273     1.0     0.482609      0.308695      0.760870     Biso  1.000000 Au
   Au3274     1.0     0.482609      0.343479      0.726086     Biso  1.000000 Au
   Au3275     1.0     0.517391      0.308695      0.726086     Biso  1.000000 Au
   Au3276     1.0     0.517391      0.343479      0.760870     Biso  1.000000 Au
   Au3277     1.0     0.552174      0.308695      0.760870     Biso  1.000000 Au
   Au3278     1.0     0.552174      0.343479      0.726086     Biso  1.000000 Au
   Au3279     1.0     0.586956      0.308695      0.726086     Biso  1.000000 Au
   Au3280     1.0     0.586956      0.343479      0.760870     Biso  1.000000 Au
   Au3281     1.0     0.621738      0.308695      0.760870     Biso  1.000000 Au
   Au3282     1.0     0.621738      0.343479      0.726086     Biso  1.000000 Au
   Au3283     1.0     0.656521      0.308695      0.726086     Biso  1.000000 Au
   Au3284     1.0     0.656521      0.343479      0.760870     Biso  1.000000 Au
   Au3285     1.0     0.691305      0.308695      0.760870     Biso  1.000000 Au
   Au3286     1.0     0.691305      0.343479      0.726086     Biso  1.000000 Au
   Au3287     1.0     0.726086      0.308695      0.726086     Biso  1.000000 Au
   Au3288     1.0     0.726086      0.343479      0.760870     Biso  1.000000 Au
   Au3289     1.0     0.760870      0.308695      0.760870     Biso  1.000000 Au
   Au3290     1.0     0.760870      0.343479      0.726086     Biso  1.000000 Au
   Au3291     1.0     0.795651      0.308695      0.726086     Biso  1.000000 Au
   Au3292     1.0     0.795651      0.343479      0.760870     Biso  1.000000 Au
   Au3293     1.0     0.169565      0.378261      0.726086     Biso  1.000000 Au
   Au3294     1.0     0.204349      0.378261      0.760870     Biso  1.000000 Au
   Au3295     1.0     0.204349      0.413044      0.726086     Biso  1.000000 Au
   Au3296     1.0     0.239130      0.378261      0.726086     Biso  1.000000 Au
   Au3297     1.0     0.239130      0.413044      0.760870     Biso  1.000000 Au
   Au3298     1.0     0.273914      0.378261      0.760870     Biso  1.000000 Au
   Au3299     1.0     0.273914      0.413044      0.726086     Biso  1.000000 Au
   Au3300     1.0     0.308695      0.378261      0.726086     Biso  1.000000 Au
   Au3301     1.0     0.308695      0.413044      0.760870     Biso  1.000000 Au
   Au3302     1.0     0.343479      0.378261      0.760870     Biso  1.000000 Au
   Au3303     1.0     0.343479      0.413044      0.726086     Biso  1.000000 Au
   Au3304     1.0     0.378261      0.378261      0.726086     Biso  1.000000 Au
   Au3305     1.0     0.378261      0.413044      0.760870     Biso  1.000000 Au
   Au3306     1.0     0.413044      0.378261      0.760870     Biso  1.000000 Au
   Au3307     1.0     0.413044      0.413044      0.726086     Biso  1.000000 Au
   Au3308     1.0     0.447826      0.378261      0.726086     Biso  1.000000 Au
   Au3309     1.0     0.447826      0.413044      0.760870     Biso  1.000000 Au
   Au3310     1.0     0.482609      0.378261      0.760870     Biso  1.000000 Au
   Au3311     1.0     0.482609      0.413044      0.726086     Biso  1.000000 Au
   Au3312     1.0     0.517391      0.378261      0.726086     Biso  1.000000 Au
   Au3313     1.0     0.517391      0.413044      0.760870     Biso  1.000000 Au
   Au3314     1.0     0.552174      0.378261      0.760870     Biso  1.000000 Au
   Au3315     1.0     0.552174      0.413044      0.726086     Biso  1.000000 Au
   Au3316     1.0     0.586956      0.378261      0.726086     Biso  1.000000 Au
   Au3317     1.0     0.586956      0.413044      0.760870     Biso  1.000000 Au
   Au3318     1.0     0.621738      0.378261      0.760870     Biso  1.000000 Au
   Au3319     1.0     0.621738      0.413044      0.726086     Biso  1.000000 Au
   Au3320     1.0     0.656521      0.378261      0.726086     Biso  1.000000 Au
   Au3321     1.0     0.656521      0.413044      0.760870     Biso  1.000000 Au
   Au3322     1.0     0.691305      0.378261      0.760870     Biso  1.000000 Au
   Au3323     1.0     0.691305      0.413044      0.726086     Biso  1.000000 Au
   Au3324     1.0     0.726086      0.378261      0.726086     Biso  1.000000 Au
   Au3325     1.0     0.726086      0.413044      0.760870     Biso  1.000000 Au
   Au3326     1.0     0.760870      0.378261      0.760870     Biso  1.000000 Au
   Au3327     1.0     0.760870      0.413044      0.726086     Biso  1.000000 Au
   Au3328     1.0     0.795651      0.378261      0.726086     Biso  1.000000 Au
   Au3329     1.0     0.795651      0.413044      0.760870     Biso  1.000000 Au
   Au3330     1.0     0.830435      0.413044      0.726086     Biso  1.000000 Au
   Au3331     1.0     0.169565      0.447826      0.726086     Biso  1.000000 Au
   Au3332     1.0     0.169565      0.482609      0.760870     Biso  1.000000 Au
   Au3333     1.0     0.204349      0.447826      0.760870     Biso  1.000000 Au
   Au3334     1.0     0.204349      0.482609      0.726086     Biso  1.000000 Au
   Au3335     1.0     0.239130      0.447826      0.726086     Biso  1.000000 Au
   Au3336     1.0     0.239130      0.482609      0.760870     Biso  1.000000 Au
   Au3337     1.0     0.273914      0.447826      0.760870     Biso  1.000000 Au
   Au3338     1.0     0.273914      0.482609      0.726086     Biso  1.000000 Au
   Au3339     1.0     0.308695      0.447826      0.726086     Biso  1.000000 Au
   Au3340     1.0     0.308695      0.482609      0.760870     Biso  1.000000 Au
   Au3341     1.0     0.343479      0.447826      0.760870     Biso  1.000000 Au
   Au3342     1.0     0.343479      0.482609      0.726086     Biso  1.000000 Au
   Au3343     1.0     0.378261      0.447826      0.726086     Biso  1.000000 Au
   Au3344     1.0     0.378261      0.482609      0.760870     Biso  1.000000 Au
   Au3345     1.0     0.413044      0.447826      0.760870     Biso  1.000000 Au
   Au3346     1.0     0.413044      0.482609      0.726086     Biso  1.000000 Au
   Au3347     1.0     0.447826      0.447826      0.726086     Biso  1.000000 Au
   Au3348     1.0     0.447826      0.482609      0.760870     Biso  1.000000 Au
   Au3349     1.0     0.482609      0.447826      0.760870     Biso  1.000000 Au
   Au3350     1.0     0.482609      0.482609      0.726086     Biso  1.000000 Au
   Au3351     1.0     0.517391      0.447826      0.726086     Biso  1.000000 Au
   Au3352     1.0     0.517391      0.482609      0.760870     Biso  1.000000 Au
   Au3353     1.0     0.552174      0.447826      0.760870     Biso  1.000000 Au
   Au3354     1.0     0.552174      0.482609      0.726086     Biso  1.000000 Au
   Au3355     1.0     0.586956      0.447826      0.726086     Biso  1.000000 Au
   Au3356     1.0     0.586956      0.482609      0.760870     Biso  1.000000 Au
   Au3357     1.0     0.621738      0.447826      0.760870     Biso  1.000000 Au
   Au3358     1.0     0.621738      0.482609      0.726086     Biso  1.000000 Au
   Au3359     1.0     0.656521      0.447826      0.726086     Biso  1.000000 Au
   Au3360     1.0     0.656521      0.482609      0.760870     Biso  1.000000 Au
   Au3361     1.0     0.691305      0.447826      0.760870     Biso  1.000000 Au
   Au3362     1.0     0.691305      0.482609      0.726086     Biso  1.000000 Au
   Au3363     1.0     0.726086      0.447826      0.726086     Biso  1.000000 Au
   Au3364     1.0     0.726086      0.482609      0.760870     Biso  1.000000 Au
   Au3365     1.0     0.760870      0.447826      0.760870     Biso  1.000000 Au
   Au3366     1.0     0.760870      0.482609      0.726086     Biso  1.000000 Au
   Au3367     1.0     0.795651      0.447826      0.726086     Biso  1.000000 Au
   Au3368     1.0     0.795651      0.482609      0.760870     Biso  1.000000 Au
   Au3369     1.0     0.830435      0.447826      0.760870     Biso  1.000000 Au
   Au3370     1.0     0.830435      0.482609      0.726086     Biso  1.000000 Au
   Au3371     1.0     0.169565      0.517391      0.726086     Biso  1.000000 Au
   Au3372     1.0     0.169565      0.552174      0.760870     Biso  1.000000 Au
   Au3373     1.0     0.204349      0.517391      0.760870     Biso  1.000000 Au
   Au3374     1.0     0.204349      0.552174      0.726086     Biso  1.000000 Au
   Au3375     1.0     0.239130      0.517391      0.726086     Biso  1.000000 Au
   Au3376     1.0     0.239130      0.552174      0.760870     Biso  1.000000 Au
   Au3377     1.0     0.273914      0.517391      0.760870     Biso  1.000000 Au
   Au3378     1.0     0.273914      0.552174      0.726086     Biso  1.000000 Au
   Au3379     1.0     0.308695      0.517391      0.726086     Biso  1.000000 Au
   Au3380     1.0     0.308695      0.552174      0.760870     Biso  1.000000 Au
   Au3381     1.0     0.343479      0.517391      0.760870     Biso  1.000000 Au
   Au3382     1.0     0.343479      0.552174      0.726086     Biso  1.000000 Au
   Au3383     1.0     0.378261      0.517391      0.726086     Biso  1.000000 Au
   Au3384     1.0     0.378261      0.552174      0.760870     Biso  1.000000 Au
   Au3385     1.0     0.413044      0.517391      0.760870     Biso  1.000000 Au
   Au3386     1.0     0.413044      0.552174      0.726086     Biso  1.000000 Au
   Au3387     1.0     0.447826      0.517391      0.726086     Biso  1.000000 Au
   Au3388     1.0     0.447826      0.552174      0.760870     Biso  1.000000 Au
   Au3389     1.0     0.482609      0.517391      0.760870     Biso  1.000000 Au
   Au3390     1.0     0.482609      0.552174      0.726086     Biso  1.000000 Au
   Au3391     1.0     0.517391      0.517391      0.726086     Biso  1.000000 Au
   Au3392     1.0     0.517391      0.552174      0.760870     Biso  1.000000 Au
   Au3393     1.0     0.552174      0.517391      0.760870     Biso  1.000000 Au
   Au3394     1.0     0.552174      0.552174      0.726086     Biso  1.000000 Au
   Au3395     1.0     0.586956      0.517391      0.726086     Biso  1.000000 Au
   Au3396     1.0     0.586956      0.552174      0.760870     Biso  1.000000 Au
   Au3397     1.0     0.621738      0.517391      0.760870     Biso  1.000000 Au
   Au3398     1.0     0.621738      0.552174      0.726086     Biso  1.000000 Au
   Au3399     1.0     0.656521      0.517391      0.726086     Biso  1.000000 Au
   Au3400     1.0     0.656521      0.552174      0.760870     Biso  1.000000 Au
   Au3401     1.0     0.691305      0.517391      0.760870     Biso  1.000000 Au
   Au3402     1.0     0.691305      0.552174      0.726086     Biso  1.000000 Au
   Au3403     1.0     0.726086      0.517391      0.726086     Biso  1.000000 Au
   Au3404     1.0     0.726086      0.552174      0.760870     Biso  1.000000 Au
   Au3405     1.0     0.760870      0.517391      0.760870     Biso  1.000000 Au
   Au3406     1.0     0.760870      0.552174      0.726086     Biso  1.000000 Au
   Au3407     1.0     0.795651      0.517391      0.726086     Biso  1.000000 Au
   Au3408     1.0     0.795651      0.552174      0.760870     Biso  1.000000 Au
   Au3409     1.0     0.830435      0.517391      0.760870     Biso  1.000000 Au
   Au3410     1.0     0.830435      0.552174      0.726086     Biso  1.000000 Au
   Au3411     1.0     0.169565      0.586956      0.726086     Biso  1.000000 Au
   Au3412     1.0     0.204349      0.586956      0.760870     Biso  1.000000 Au
   Au3413     1.0     0.204349      0.621738      0.726086     Biso  1.000000 Au
   Au3414     1.0     0.239130      0.586956      0.726086     Biso  1.000000 Au
   Au3415     1.0     0.239130      0.621738      0.760870     Biso  1.000000 Au
   Au3416     1.0     0.273914      0.586956      0.760870     Biso  1.000000 Au
   Au3417     1.0     0.273914      0.621738      0.726086     Biso  1.000000 Au
   Au3418     1.0     0.308695      0.586956      0.726086     Biso  1.000000 Au
   Au3419     1.0     0.308695      0.621738      0.760870     Biso  1.000000 Au
   Au3420     1.0     0.343479      0.586956      0.760870     Biso  1.000000 Au
   Au3421     1.0     0.343479      0.621738      0.726086     Biso  1.000000 Au
   Au3422     1.0     0.378261      0.586956      0.726086     Biso  1.000000 Au
   Au3423     1.0     0.378261      0.621738      0.760870     Biso  1.000000 Au
   Au3424     1.0     0.413044      0.586956      0.760870     Biso  1.000000 Au
   Au3425     1.0     0.413044      0.621738      0.726086     Biso  1.000000 Au
   Au3426     1.0     0.447826      0.586956      0.726086     Biso  1.000000 Au
   Au3427     1.0     0.447826      0.621738      0.760870     Biso  1.000000 Au
   Au3428     1.0     0.482609      0.586956      0.760870     Biso  1.000000 Au
   Au3429     1.0     0.482609      0.621738      0.726086     Biso  1.000000 Au
   Au3430     1.0     0.517391      0.586956      0.726086     Biso  1.000000 Au
   Au3431     1.0     0.517391      0.621738      0.760870     Biso  1.000000 Au
   Au3432     1.0     0.552174      0.586956      0.760870     Biso  1.000000 Au
   Au3433     1.0     0.552174      0.621738      0.726086     Biso  1.000000 Au
   Au3434     1.0     0.586956      0.586956      0.726086     Biso  1.000000 Au
   Au3435     1.0     0.586956      0.621738      0.760870     Biso  1.000000 Au
   Au3436     1.0     0.621738      0.586956      0.760870     Biso  1.000000 Au
   Au3437     1.0     0.621738      0.621738      0.726086     Biso  1.000000 Au
   Au3438     1.0     0.656521      0.586956      0.726086     Biso  1.000000 Au
   Au3439     1.0     0.656521      0.621738      0.760870     Biso  1.000000 Au
   Au3440     1.0     0.691305      0.586956      0.760870     Biso  1.000000 Au
   Au3441     1.0     0.691305      0.621738      0.726086     Biso  1.000000 Au
   Au3442     1.0     0.726086      0.586956      0.726086     Biso  1.000000 Au
   Au3443     1.0     0.726086      0.621738      0.760870     Biso  1.000000 Au
   Au3444     1.0     0.760870      0.586956      0.760870     Biso  1.000000 Au
   Au3445     1.0     0.760870      0.621738      0.726086     Biso  1.000000 Au
   Au3446     1.0     0.795651      0.586956      0.726086     Biso  1.000000 Au
   Au3447     1.0     0.795651      0.621738      0.760870     Biso  1.000000 Au
   Au3448     1.0     0.830435      0.621738      0.726086     Biso  1.000000 Au
   Au3449     1.0     0.204349      0.656521      0.760870     Biso  1.000000 Au
   Au3450     1.0     0.204349      0.691305      0.726086     Biso  1.000000 Au
   Au3451     1.0     0.239130      0.656521      0.726086     Biso  1.000000 Au
   Au3452     1.0     0.239130      0.691305      0.760870     Biso  1.000000 Au
   Au3453     1.0     0.273914      0.656521      0.760870     Biso  1.000000 Au
   Au3454     1.0     0.273914      0.691305      0.726086     Biso  1.000000 Au
   Au3455     1.0     0.308695      0.656521      0.726086     Biso  1.000000 Au
   Au3456     1.0     0.308695      0.691305      0.760870     Biso  1.000000 Au
   Au3457     1.0     0.343479      0.656521      0.760870     Biso  1.000000 Au
   Au3458     1.0     0.343479      0.691305      0.726086     Biso  1.000000 Au
   Au3459     1.0     0.378261      0.656521      0.726086     Biso  1.000000 Au
   Au3460     1.0     0.378261      0.691305      0.760870     Biso  1.000000 Au
   Au3461     1.0     0.413044      0.656521      0.760870     Biso  1.000000 Au
   Au3462     1.0     0.413044      0.691305      0.726086     Biso  1.000000 Au
   Au3463     1.0     0.447826      0.656521      0.726086     Biso  1.000000 Au
   Au3464     1.0     0.447826      0.691305      0.760870     Biso  1.000000 Au
   Au3465     1.0     0.482609      0.656521      0.760870     Biso  1.000000 Au
   Au3466     1.0     0.482609      0.691305      0.726086     Biso  1.000000 Au
   Au3467     1.0     0.517391      0.656521      0.726086     Biso  1.000000 Au
   Au3468     1.0     0.517391      0.691305      0.760870     Biso  1.000000 Au
   Au3469     1.0     0.552174      0.656521      0.760870     Biso  1.000000 Au
   Au3470     1.0     0.552174      0.691305      0.726086     Biso  1.000000 Au
   Au3471     1.0     0.586956      0.656521      0.726086     Biso  1.000000 Au
   Au3472     1.0     0.586956      0.691305      0.760870     Biso  1.000000 Au
   Au3473     1.0     0.621738      0.656521      0.760870     Biso  1.000000 Au
   Au3474     1.0     0.621738      0.691305      0.726086     Biso  1.000000 Au
   Au3475     1.0     0.656521      0.656521      0.726086     Biso  1.000000 Au
   Au3476     1.0     0.656521      0.691305      0.760870     Biso  1.000000 Au
   Au3477     1.0     0.691305      0.656521      0.760870     Biso  1.000000 Au
   Au3478     1.0     0.691305      0.691305      0.726086     Biso  1.000000 Au
   Au3479     1.0     0.726086      0.656521      0.726086     Biso  1.000000 Au
   Au3480     1.0     0.726086      0.691305      0.760870     Biso  1.000000 Au
   Au3481     1.0     0.760870      0.656521      0.760870     Biso  1.000000 Au
   Au3482     1.0     0.760870      0.691305      0.726086     Biso  1.000000 Au
   Au3483     1.0     0.795651      0.656521      0.726086     Biso  1.000000 Au
   Au3484     1.0     0.239130      0.726086      0.726086     Biso  1.000000 Au
   Au3485     1.0     0.273914      0.726086      0.760870     Biso  1.000000 Au
   Au3486     1.0     0.273914      0.760870      0.726086     Biso  1.000000 Au
   Au3487     1.0     0.308695      0.726086      0.726086     Biso  1.000000 Au
   Au3488     1.0     0.308695      0.760870      0.760870     Biso  1.000000 Au
   Au3489     1.0     0.343479      0.726086      0.760870     Biso  1.000000 Au
   Au3490     1.0     0.343479      0.760870      0.726086     Biso  1.000000 Au
   Au3491     1.0     0.378261      0.726086      0.726086     Biso  1.000000 Au
   Au3492     1.0     0.378261      0.760870      0.760870     Biso  1.000000 Au
   Au3493     1.0     0.413044      0.726086      0.760870     Biso  1.000000 Au
   Au3494     1.0     0.413044      0.760870      0.726086     Biso  1.000000 Au
   Au3495     1.0     0.447826      0.726086      0.726086     Biso  1.000000 Au
   Au3496     1.0     0.447826      0.760870      0.760870     Biso  1.000000 Au
   Au3497     1.0     0.482609      0.726086      0.760870     Biso  1.000000 Au
   Au3498     1.0     0.482609      0.760870      0.726086     Biso  1.000000 Au
   Au3499     1.0     0.517391      0.726086      0.726086     Biso  1.000000 Au
   Au3500     1.0     0.517391      0.760870      0.760870     Biso  1.000000 Au
   Au3501     1.0     0.552174      0.726086      0.760870     Biso  1.000000 Au
   Au3502     1.0     0.552174      0.760870      0.726086     Biso  1.000000 Au
   Au3503     1.0     0.586956      0.726086      0.726086     Biso  1.000000 Au
   Au3504     1.0     0.586956      0.760870      0.760870     Biso  1.000000 Au
   Au3505     1.0     0.621738      0.726086      0.760870     Biso  1.000000 Au
   Au3506     1.0     0.621738      0.760870      0.726086     Biso  1.000000 Au
   Au3507     1.0     0.656521      0.726086      0.726086     Biso  1.000000 Au
   Au3508     1.0     0.656521      0.760870      0.760870     Biso  1.000000 Au
   Au3509     1.0     0.691305      0.726086      0.760870     Biso  1.000000 Au
   Au3510     1.0     0.691305      0.760870      0.726086     Biso  1.000000 Au
   Au3511     1.0     0.726086      0.726086      0.726086     Biso  1.000000 Au
   Au3512     1.0     0.308695      0.795651      0.726086     Biso  1.000000 Au
   Au3513     1.0     0.343479      0.795651      0.760870     Biso  1.000000 Au
   Au3514     1.0     0.378261      0.795651      0.726086     Biso  1.000000 Au
   Au3515     1.0     0.413044      0.795651      0.760870     Biso  1.000000 Au
   Au3516     1.0     0.413044      0.830435      0.726086     Biso  1.000000 Au
   Au3517     1.0     0.447826      0.795651      0.726086     Biso  1.000000 Au
   Au3518     1.0     0.447826      0.830435      0.760870     Biso  1.000000 Au
   Au3519     1.0     0.482609      0.795651      0.760870     Biso  1.000000 Au
   Au3520     1.0     0.482609      0.830435      0.726086     Biso  1.000000 Au
   Au3521     1.0     0.517391      0.795651      0.726086     Biso  1.000000 Au
   Au3522     1.0     0.517391      0.830435      0.760870     Biso  1.000000 Au
   Au3523     1.0     0.552174      0.795651      0.760870     Biso  1.000000 Au
   Au3524     1.0     0.552174      0.830435      0.726086     Biso  1.000000 Au
   Au3525     1.0     0.586956      0.795651      0.726086     Biso  1.000000 Au
   Au3526     1.0     0.621738      0.795651      0.760870     Biso  1.000000 Au
   Au3527     1.0     0.621738      0.830435      0.726086     Biso  1.000000 Au
   Au3528     1.0     0.656521      0.795651      0.726086     Biso  1.000000 Au
   Au3529     1.0     0.482609      0.204349      0.795651     Biso  1.000000 Au
   Au3530     1.0     0.552174      0.204349      0.795651     Biso  1.000000 Au
   Au3531     1.0     0.343479      0.273914      0.795651     Biso  1.000000 Au
   Au3532     1.0     0.378261      0.239130      0.795651     Biso  1.000000 Au
   Au3533     1.0     0.378261      0.273914      0.830435     Biso  1.000000 Au
   Au3534     1.0     0.413044      0.273914      0.795651     Biso  1.000000 Au
   Au3535     1.0     0.447826      0.239130      0.795651     Biso  1.000000 Au
   Au3536     1.0     0.447826      0.273914      0.830435     Biso  1.000000 Au
   Au3537     1.0     0.482609      0.239130      0.830435     Biso  1.000000 Au
   Au3538     1.0     0.482609      0.273914      0.795651     Biso  1.000000 Au
   Au3539     1.0     0.517391      0.239130      0.795651     Biso  1.000000 Au
   Au3540     1.0     0.517391      0.273914      0.830435     Biso  1.000000 Au
   Au3541     1.0     0.552174      0.239130      0.830435     Biso  1.000000 Au
   Au3542     1.0     0.552174      0.273914      0.795651     Biso  1.000000 Au
   Au3543     1.0     0.586956      0.239130      0.795651     Biso  1.000000 Au
   Au3544     1.0     0.586956      0.273914      0.830435     Biso  1.000000 Au
   Au3545     1.0     0.621738      0.273914      0.795651     Biso  1.000000 Au
   Au3546     1.0     0.656521      0.239130      0.795651     Biso  1.000000 Au
   Au3547     1.0     0.691305      0.273914      0.795651     Biso  1.000000 Au
   Au3548     1.0     0.273914      0.343479      0.795651     Biso  1.000000 Au
   Au3549     1.0     0.308695      0.308695      0.795651     Biso  1.000000 Au
   Au3550     1.0     0.308695      0.343479      0.830435     Biso  1.000000 Au
   Au3551     1.0     0.343479      0.308695      0.830435     Biso  1.000000 Au
   Au3552     1.0     0.343479      0.343479      0.795651     Biso  1.000000 Au
   Au3553     1.0     0.378261      0.308695      0.795651     Biso  1.000000 Au
   Au3554     1.0     0.378261      0.343479      0.830435     Biso  1.000000 Au
   Au3555     1.0     0.413044      0.308695      0.830435     Biso  1.000000 Au
   Au3556     1.0     0.413044      0.343479      0.795651     Biso  1.000000 Au
   Au3557     1.0     0.447826      0.308695      0.795651     Biso  1.000000 Au
   Au3558     1.0     0.447826      0.343479      0.830435     Biso  1.000000 Au
   Au3559     1.0     0.482609      0.308695      0.830435     Biso  1.000000 Au
   Au3560     1.0     0.482609      0.343479      0.795651     Biso  1.000000 Au
   Au3561     1.0     0.517391      0.308695      0.795651     Biso  1.000000 Au
   Au3562     1.0     0.517391      0.343479      0.830435     Biso  1.000000 Au
   Au3563     1.0     0.552174      0.308695      0.830435     Biso  1.000000 Au
   Au3564     1.0     0.552174      0.343479      0.795651     Biso  1.000000 Au
   Au3565     1.0     0.586956      0.308695      0.795651     Biso  1.000000 Au
   Au3566     1.0     0.586956      0.343479      0.830435     Biso  1.000000 Au
   Au3567     1.0     0.621738      0.308695      0.830435     Biso  1.000000 Au
   Au3568     1.0     0.621738      0.343479      0.795651     Biso  1.000000 Au
   Au3569     1.0     0.656521      0.308695      0.795651     Biso  1.000000 Au
   Au3570     1.0     0.656521      0.343479      0.830435     Biso  1.000000 Au
   Au3571     1.0     0.691305      0.343479      0.795651     Biso  1.000000 Au
   Au3572     1.0     0.726086      0.308695      0.795651     Biso  1.000000 Au
   Au3573     1.0     0.760870      0.343479      0.795651     Biso  1.000000 Au
   Au3574     1.0     0.239130      0.378261      0.795651     Biso  1.000000 Au
   Au3575     1.0     0.273914      0.378261      0.830435     Biso  1.000000 Au
   Au3576     1.0     0.273914      0.413044      0.795651     Biso  1.000000 Au
   Au3577     1.0     0.308695      0.378261      0.795651     Biso  1.000000 Au
   Au3578     1.0     0.308695      0.413044      0.830435     Biso  1.000000 Au
   Au3579     1.0     0.343479      0.378261      0.830435     Biso  1.000000 Au
   Au3580     1.0     0.343479      0.413044      0.795651     Biso  1.000000 Au
   Au3581     1.0     0.378261      0.378261      0.795651     Biso  1.000000 Au
   Au3582     1.0     0.378261      0.413044      0.830435     Biso  1.000000 Au
   Au3583     1.0     0.413044      0.378261      0.830435     Biso  1.000000 Au
   Au3584     1.0     0.413044      0.413044      0.795651     Biso  1.000000 Au
   Au3585     1.0     0.447826      0.378261      0.795651     Biso  1.000000 Au
   Au3586     1.0     0.447826      0.413044      0.830435     Biso  1.000000 Au
   Au3587     1.0     0.482609      0.378261      0.830435     Biso  1.000000 Au
   Au3588     1.0     0.482609      0.413044      0.795651     Biso  1.000000 Au
   Au3589     1.0     0.517391      0.378261      0.795651     Biso  1.000000 Au
   Au3590     1.0     0.517391      0.413044      0.830435     Biso  1.000000 Au
   Au3591     1.0     0.552174      0.378261      0.830435     Biso  1.000000 Au
   Au3592     1.0     0.552174      0.413044      0.795651     Biso  1.000000 Au
   Au3593     1.0     0.586956      0.378261      0.795651     Biso  1.000000 Au
   Au3594     1.0     0.586956      0.413044      0.830435     Biso  1.000000 Au
   Au3595     1.0     0.621738      0.378261      0.830435     Biso  1.000000 Au
   Au3596     1.0     0.621738      0.413044      0.795651     Biso  1.000000 Au
   Au3597     1.0     0.656521      0.378261      0.795651     Biso  1.000000 Au
   Au3598     1.0     0.656521      0.413044      0.830435     Biso  1.000000 Au
   Au3599     1.0     0.691305      0.378261      0.830435     Biso  1.000000 Au
   Au3600     1.0     0.691305      0.413044      0.795651     Biso  1.000000 Au
   Au3601     1.0     0.726086      0.378261      0.795651     Biso  1.000000 Au
   Au3602     1.0     0.726086      0.413044      0.830435     Biso  1.000000 Au
   Au3603     1.0     0.760870      0.413044      0.795651     Biso  1.000000 Au
   Au3604     1.0     0.204349      0.482609      0.795651     Biso  1.000000 Au
   Au3605     1.0     0.239130      0.447826      0.795651     Biso  1.000000 Au
   Au3606     1.0     0.239130      0.482609      0.830435     Biso  1.000000 Au
   Au3607     1.0     0.273914      0.447826      0.830435     Biso  1.000000 Au
   Au3608     1.0     0.273914      0.482609      0.795651     Biso  1.000000 Au
   Au3609     1.0     0.308695      0.447826      0.795651     Biso  1.000000 Au
   Au3610     1.0     0.308695      0.482609      0.830435     Biso  1.000000 Au
   Au3611     1.0     0.343479      0.447826      0.830435     Biso  1.000000 Au
   Au3612     1.0     0.343479      0.482609      0.795651     Biso  1.000000 Au
   Au3613     1.0     0.378261      0.447826      0.795651     Biso  1.000000 Au
   Au3614     1.0     0.378261      0.482609      0.830435     Biso  1.000000 Au
   Au3615     1.0     0.413044      0.447826      0.830435     Biso  1.000000 Au
   Au3616     1.0     0.413044      0.482609      0.795651     Biso  1.000000 Au
   Au3617     1.0     0.447826      0.447826      0.795651     Biso  1.000000 Au
   Au3618     1.0     0.447826      0.482609      0.830435     Biso  1.000000 Au
   Au3619     1.0     0.482609      0.447826      0.830435     Biso  1.000000 Au
   Au3620     1.0     0.482609      0.482609      0.795651     Biso  1.000000 Au
   Au3621     1.0     0.517391      0.447826      0.795651     Biso  1.000000 Au
   Au3622     1.0     0.517391      0.482609      0.830435     Biso  1.000000 Au
   Au3623     1.0     0.552174      0.447826      0.830435     Biso  1.000000 Au
   Au3624     1.0     0.552174      0.482609      0.795651     Biso  1.000000 Au
   Au3625     1.0     0.586956      0.447826      0.795651     Biso  1.000000 Au
   Au3626     1.0     0.586956      0.482609      0.830435     Biso  1.000000 Au
   Au3627     1.0     0.621738      0.447826      0.830435     Biso  1.000000 Au
   Au3628     1.0     0.621738      0.482609      0.795651     Biso  1.000000 Au
   Au3629     1.0     0.656521      0.447826      0.795651     Biso  1.000000 Au
   Au3630     1.0     0.656521      0.482609      0.830435     Biso  1.000000 Au
   Au3631     1.0     0.691305      0.447826      0.830435     Biso  1.000000 Au
   Au3632     1.0     0.691305      0.482609      0.795651     Biso  1.000000 Au
   Au3633     1.0     0.726086      0.447826      0.795651     Biso  1.000000 Au
   Au3634     1.0     0.726086      0.482609      0.830435     Biso  1.000000 Au
   Au3635     1.0     0.760870      0.447826      0.830435     Biso  1.000000 Au
   Au3636     1.0     0.760870      0.482609      0.795651     Biso  1.000000 Au
   Au3637     1.0     0.795651      0.447826      0.795651     Biso  1.000000 Au
   Au3638     1.0     0.204349      0.552174      0.795651     Biso  1.000000 Au
   Au3639     1.0     0.239130      0.517391      0.795651     Biso  1.000000 Au
   Au3640     1.0     0.239130      0.552174      0.830435     Biso  1.000000 Au
   Au3641     1.0     0.273914      0.517391      0.830435     Biso  1.000000 Au
   Au3642     1.0     0.273914      0.552174      0.795651     Biso  1.000000 Au
   Au3643     1.0     0.308695      0.517391      0.795651     Biso  1.000000 Au
   Au3644     1.0     0.308695      0.552174      0.830435     Biso  1.000000 Au
   Au3645     1.0     0.343479      0.517391      0.830435     Biso  1.000000 Au
   Au3646     1.0     0.343479      0.552174      0.795651     Biso  1.000000 Au
   Au3647     1.0     0.378261      0.517391      0.795651     Biso  1.000000 Au
   Au3648     1.0     0.378261      0.552174      0.830435     Biso  1.000000 Au
   Au3649     1.0     0.413044      0.517391      0.830435     Biso  1.000000 Au
   Au3650     1.0     0.413044      0.552174      0.795651     Biso  1.000000 Au
   Au3651     1.0     0.447826      0.517391      0.795651     Biso  1.000000 Au
   Au3652     1.0     0.447826      0.552174      0.830435     Biso  1.000000 Au
   Au3653     1.0     0.482609      0.517391      0.830435     Biso  1.000000 Au
   Au3654     1.0     0.482609      0.552174      0.795651     Biso  1.000000 Au
   Au3655     1.0     0.517391      0.517391      0.795651     Biso  1.000000 Au
   Au3656     1.0     0.517391      0.552174      0.830435     Biso  1.000000 Au
   Au3657     1.0     0.552174      0.517391      0.830435     Biso  1.000000 Au
   Au3658     1.0     0.552174      0.552174      0.795651     Biso  1.000000 Au
   Au3659     1.0     0.586956      0.517391      0.795651     Biso  1.000000 Au
   Au3660     1.0     0.586956      0.552174      0.830435     Biso  1.000000 Au
   Au3661     1.0     0.621738      0.517391      0.830435     Biso  1.000000 Au
   Au3662     1.0     0.621738      0.552174      0.795651     Biso  1.000000 Au
   Au3663     1.0     0.656521      0.517391      0.795651     Biso  1.000000 Au
   Au3664     1.0     0.656521      0.552174      0.830435     Biso  1.000000 Au
   Au3665     1.0     0.691305      0.517391      0.830435     Biso  1.000000 Au
   Au3666     1.0     0.691305      0.552174      0.795651     Biso  1.000000 Au
   Au3667     1.0     0.726086      0.517391      0.795651     Biso  1.000000 Au
   Au3668     1.0     0.726086      0.552174      0.830435     Biso  1.000000 Au
   Au3669     1.0     0.760870      0.517391      0.830435     Biso  1.000000 Au
   Au3670     1.0     0.760870      0.552174      0.795651     Biso  1.000000 Au
   Au3671     1.0     0.795651      0.517391      0.795651     Biso  1.000000 Au
   Au3672     1.0     0.239130      0.586956      0.795651     Biso  1.000000 Au
   Au3673     1.0     0.273914      0.586956      0.830435     Biso  1.000000 Au
   Au3674     1.0     0.273914      0.621738      0.795651     Biso  1.000000 Au
   Au3675     1.0     0.308695      0.586956      0.795651     Biso  1.000000 Au
   Au3676     1.0     0.308695      0.621738      0.830435     Biso  1.000000 Au
   Au3677     1.0     0.343479      0.586956      0.830435     Biso  1.000000 Au
   Au3678     1.0     0.343479      0.621738      0.795651     Biso  1.000000 Au
   Au3679     1.0     0.378261      0.586956      0.795651     Biso  1.000000 Au
   Au3680     1.0     0.378261      0.621738      0.830435     Biso  1.000000 Au
   Au3681     1.0     0.413044      0.586956      0.830435     Biso  1.000000 Au
   Au3682     1.0     0.413044      0.621738      0.795651     Biso  1.000000 Au
   Au3683     1.0     0.447826      0.586956      0.795651     Biso  1.000000 Au
   Au3684     1.0     0.447826      0.621738      0.830435     Biso  1.000000 Au
   Au3685     1.0     0.482609      0.586956      0.830435     Biso  1.000000 Au
   Au3686     1.0     0.482609      0.621738      0.795651     Biso  1.000000 Au
   Au3687     1.0     0.517391      0.586956      0.795651     Biso  1.000000 Au
   Au3688     1.0     0.517391      0.621738      0.830435     Biso  1.000000 Au
   Au3689     1.0     0.552174      0.586956      0.830435     Biso  1.000000 Au
   Au3690     1.0     0.552174      0.621738      0.795651     Biso  1.000000 Au
   Au3691     1.0     0.586956      0.586956      0.795651     Biso  1.000000 Au
   Au3692     1.0     0.586956      0.621738      0.830435     Biso  1.000000 Au
   Au3693     1.0     0.621738      0.586956      0.830435     Biso  1.000000 Au
   Au3694     1.0     0.621738      0.621738      0.795651     Biso  1.000000 Au
   Au3695     1.0     0.656521      0.586956      0.795651     Biso  1.000000 Au
   Au3696     1.0     0.656521      0.621738      0.830435     Biso  1.000000 Au
   Au3697     1.0     0.691305      0.586956      0.830435     Biso  1.000000 Au
   Au3698     1.0     0.691305      0.621738      0.795651     Biso  1.000000 Au
   Au3699     1.0     0.726086      0.586956      0.795651     Biso  1.000000 Au
   Au3700     1.0     0.726086      0.621738      0.830435     Biso  1.000000 Au
   Au3701     1.0     0.760870      0.621738      0.795651     Biso  1.000000 Au
   Au3702     1.0     0.239130      0.656521      0.795651     Biso  1.000000 Au
   Au3703     1.0     0.273914      0.691305      0.795651     Biso  1.000000 Au
   Au3704     1.0     0.308695      0.656521      0.795651     Biso  1.000000 Au
   Au3705     1.0     0.343479      0.656521      0.830435     Biso  1.000000 Au
   Au3706     1.0     0.343479      0.691305      0.795651     Biso  1.000000 Au
   Au3707     1.0     0.378261      0.656521      0.795651     Biso  1.000000 Au
   Au3708     1.0     0.378261      0.691305      0.830435     Biso  1.000000 Au
   Au3709     1.0     0.413044      0.656521      0.830435     Biso  1.000000 Au
   Au3710     1.0     0.413044      0.691305      0.795651     Biso  1.000000 Au
   Au3711     1.0     0.447826      0.656521      0.795651     Biso  1.000000 Au
   Au3712     1.0     0.447826      0.691305      0.830435     Biso  1.000000 Au
   Au3713     1.0     0.482609      0.656521      0.830435     Biso  1.000000 Au
   Au3714     1.0     0.482609      0.691305      0.795651     Biso  1.000000 Au
   Au3715     1.0     0.517391      0.656521      0.795651     Biso  1.000000 Au
   Au3716     1.0     0.517391      0.691305      0.830435     Biso  1.000000 Au
   Au3717     1.0     0.552174      0.656521      0.830435     Biso  1.000000 Au
   Au3718     1.0     0.552174      0.691305      0.795651     Biso  1.000000 Au
   Au3719     1.0     0.586956      0.656521      0.795651     Biso  1.000000 Au
   Au3720     1.0     0.586956      0.691305      0.830435     Biso  1.000000 Au
   Au3721     1.0     0.621738      0.656521      0.830435     Biso  1.000000 Au
   Au3722     1.0     0.621738      0.691305      0.795651     Biso  1.000000 Au
   Au3723     1.0     0.656521      0.656521      0.795651     Biso  1.000000 Au
   Au3724     1.0     0.656521      0.691305      0.830435     Biso  1.000000 Au
   Au3725     1.0     0.691305      0.656521      0.830435     Biso  1.000000 Au
   Au3726     1.0     0.691305      0.691305      0.795651     Biso  1.000000 Au
   Au3727     1.0     0.726086      0.656521      0.795651     Biso  1.000000 Au
   Au3728     1.0     0.308695      0.726086      0.795651     Biso  1.000000 Au
   Au3729     1.0     0.343479      0.760870      0.795651     Biso  1.000000 Au
   Au3730     1.0     0.378261      0.726086      0.795651     Biso  1.000000 Au
   Au3731     1.0     0.413044      0.726086      0.830435     Biso  1.000000 Au
   Au3732     1.0     0.413044      0.760870      0.795651     Biso  1.000000 Au
   Au3733     1.0     0.447826      0.726086      0.795651     Biso  1.000000 Au
   Au3734     1.0     0.447826      0.760870      0.830435     Biso  1.000000 Au
   Au3735     1.0     0.482609      0.726086      0.830435     Biso  1.000000 Au
   Au3736     1.0     0.482609      0.760870      0.795651     Biso  1.000000 Au
   Au3737     1.0     0.517391      0.726086      0.795651     Biso  1.000000 Au
   Au3738     1.0     0.517391      0.760870      0.830435     Biso  1.000000 Au
   Au3739     1.0     0.552174      0.726086      0.830435     Biso  1.000000 Au
   Au3740     1.0     0.552174      0.760870      0.795651     Biso  1.000000 Au
   Au3741     1.0     0.586956      0.726086      0.795651     Biso  1.000000 Au
   Au3742     1.0     0.621738      0.726086      0.830435     Biso  1.000000 Au
   Au3743     1.0     0.621738      0.760870      0.795651     Biso  1.000000 Au
   Au3744     1.0     0.656521      0.726086      0.795651     Biso  1.000000 Au
   Au3745     1.0     0.447826      0.795651      0.795651     Biso  1.000000 Au
   Au3746     1.0     0.517391      0.795651      0.795651     Biso  1.000000 Au
   Au3747     1.0     0.413044      0.343479      0.865217     Biso  1.000000 Au
   Au3748     1.0     0.447826      0.308695      0.865217     Biso  1.000000 Au
   Au3749     1.0     0.482609      0.343479      0.865217     Biso  1.000000 Au
   Au3750     1.0     0.517391      0.308695      0.865217     Biso  1.000000 Au
   Au3751     1.0     0.552174      0.343479      0.865217     Biso  1.000000 Au
   Au3752     1.0     0.586956      0.308695      0.865217     Biso  1.000000 Au
   Au3753     1.0     0.621738      0.343479      0.865217     Biso  1.000000 Au
   Au3754     1.0     0.343479      0.413044      0.865217     Biso  1.000000 Au
   Au3755     1.0     0.378261      0.378261      0.865217     Biso  1.000000 Au
   Au3756     1.0     0.413044      0.413044      0.865217     Biso  1.000000 Au
   Au3757     1.0     0.447826      0.378261      0.865217     Biso  1.000000 Au
   Au3758     1.0     0.447826      0.413044      0.900000     Biso  1.000000 Au
   Au3759     1.0     0.482609      0.378261      0.900000     Biso  1.000000 Au
   Au3760     1.0     0.482609      0.413044      0.865217     Biso  1.000000 Au
   Au3761     1.0     0.517391      0.378261      0.865217     Biso  1.000000 Au
   Au3762     1.0     0.517391      0.413044      0.900000     Biso  1.000000 Au
   Au3763     1.0     0.552174      0.378261      0.900000     Biso  1.000000 Au
   Au3764     1.0     0.552174      0.413044      0.865217     Biso  1.000000 Au
   Au3765     1.0     0.586956      0.378261      0.865217     Biso  1.000000 Au
   Au3766     1.0     0.586956      0.413044      0.900000     Biso  1.000000 Au
   Au3767     1.0     0.621738      0.413044      0.865217     Biso  1.000000 Au
   Au3768     1.0     0.656521      0.378261      0.865217     Biso  1.000000 Au
   Au3769     1.0     0.691305      0.413044      0.865217     Biso  1.000000 Au
   Au3770     1.0     0.308695      0.447826      0.865217     Biso  1.000000 Au
   Au3771     1.0     0.343479      0.482609      0.865217     Biso  1.000000 Au
   Au3772     1.0     0.378261      0.447826      0.865217     Biso  1.000000 Au
   Au3773     1.0     0.378261      0.482609      0.900000     Biso  1.000000 Au
   Au3774     1.0     0.413044      0.447826      0.900000     Biso  1.000000 Au
   Au3775     1.0     0.413044      0.482609      0.865217     Biso  1.000000 Au
   Au3776     1.0     0.447826      0.447826      0.865217     Biso  1.000000 Au
   Au3777     1.0     0.447826      0.482609      0.900000     Biso  1.000000 Au
   Au3778     1.0     0.482609      0.447826      0.900000     Biso  1.000000 Au
   Au3779     1.0     0.482609      0.482609      0.865217     Biso  1.000000 Au
   Au3780     1.0     0.517391      0.447826      0.865217     Biso  1.000000 Au
   Au3781     1.0     0.517391      0.482609      0.900000     Biso  1.000000 Au
   Au3782     1.0     0.552174      0.447826      0.900000     Biso  1.000000 Au
   Au3783     1.0     0.552174      0.482609      0.865217     Biso  1.000000 Au
   Au3784     1.0     0.586956      0.447826      0.865217     Biso  1.000000 Au
   Au3785     1.0     0.586956      0.482609      0.900000     Biso  1.000000 Au
   Au3786     1.0     0.621738      0.447826      0.900000     Biso  1.000000 Au
   Au3787     1.0     0.621738      0.482609      0.865217     Biso  1.000000 Au
   Au3788     1.0     0.656521      0.447826      0.865217     Biso  1.000000 Au
   Au3789     1.0     0.691305      0.482609      0.865217     Biso  1.000000 Au
   Au3790     1.0     0.308695      0.517391      0.865217     Biso  1.000000 Au
   Au3791     1.0     0.343479      0.552174      0.865217     Biso  1.000000 Au
   Au3792     1.0     0.378261      0.517391      0.865217     Biso  1.000000 Au
   Au3793     1.0     0.378261      0.552174      0.900000     Biso  1.000000 Au
   Au3794     1.0     0.413044      0.517391      0.900000     Biso  1.000000 Au
   Au3795     1.0     0.413044      0.552174      0.865217     Biso  1.000000 Au
   Au3796     1.0     0.447826      0.517391      0.865217     Biso  1.000000 Au
   Au3797     1.0     0.447826      0.552174      0.900000     Biso  1.000000 Au
   Au3798     1.0     0.482609      0.517391      0.900000     Biso  1.000000 Au
   Au3799     1.0     0.482609      0.552174      0.865217     Biso  1.000000 Au
   Au3800     1.0     0.517391      0.517391      0.865217     Biso  1.000000 Au
   Au3801     1.0     0.517391      0.552174      0.900000     Biso  1.000000 Au
   Au3802     1.0     0.552174      0.517391      0.900000     Biso  1.000000 Au
   Au3803     1.0     0.552174      0.552174      0.865217     Biso  1.000000 Au
   Au3804     1.0     0.586956      0.517391      0.865217     Biso  1.000000 Au
   Au3805     1.0     0.586956      0.552174      0.900000     Biso  1.000000 Au
   Au3806     1.0     0.621738      0.517391      0.900000     Biso  1.000000 Au
   Au3807     1.0     0.621738      0.552174      0.865217     Biso  1.000000 Au
   Au3808     1.0     0.656521      0.517391      0.865217     Biso  1.000000 Au
   Au3809     1.0     0.691305      0.552174      0.865217     Biso  1.000000 Au
   Au3810     1.0     0.308695      0.586956      0.865217     Biso  1.000000 Au
   Au3811     1.0     0.343479      0.621738      0.865217     Biso  1.000000 Au
   Au3812     1.0     0.378261      0.586956      0.865217     Biso  1.000000 Au
   Au3813     1.0     0.413044      0.586956      0.900000     Biso  1.000000 Au
   Au3814     1.0     0.413044      0.621738      0.865217     Biso  1.000000 Au
   Au3815     1.0     0.447826      0.586956      0.865217     Biso  1.000000 Au
   Au3816     1.0     0.447826      0.621738      0.900000     Biso  1.000000 Au
   Au3817     1.0     0.482609      0.586956      0.900000     Biso  1.000000 Au
   Au3818     1.0     0.482609      0.621738      0.865217     Biso  1.000000 Au
   Au3819     1.0     0.517391      0.586956      0.865217     Biso  1.000000 Au
   Au3820     1.0     0.517391      0.621738      0.900000     Biso  1.000000 Au
   Au3821     1.0     0.552174      0.586956      0.900000     Biso  1.000000 Au
   Au3822     1.0     0.552174      0.621738      0.865217     Biso  1.000000 Au
   Au3823     1.0     0.586956      0.586956      0.865217     Biso  1.000000 Au
   Au3824     1.0     0.621738      0.621738      0.865217     Biso  1.000000 Au
   Au3825     1.0     0.656521      0.586956      0.865217     Biso  1.000000 Au
   Au3826     1.0     0.378261      0.656521      0.865217     Biso  1.000000 Au
   Au3827     1.0     0.413044      0.691305      0.865217     Biso  1.000000 Au
   Au3828     1.0     0.447826      0.656521      0.865217     Biso  1.000000 Au
   Au3829     1.0     0.482609      0.691305      0.865217     Biso  1.000000 Au
   Au3830     1.0     0.517391      0.656521      0.865217     Biso  1.000000 Au
   Au3831     1.0     0.552174      0.691305      0.865217     Biso  1.000000 Au
   Au3832     1.0     0.586956      0.656521      0.865217     Biso  1.000000 Au
