#======================================================================

# CRYSTAL DATA

#----------------------------------------------------------------------

data_VESTA_phase_1


_chemical_name_common                  'generated by VMD'
_cell_length_a                         73.91912
_cell_length_b                         73.91912
_cell_length_c                         73.91912
_cell_angle_alpha                      90
_cell_angle_beta                       90
_cell_angle_gamma                      90
_space_group_name_H-M_alt              'Custom'
_space_group_IT_number                 1

loop_
_space_group_symop_operation_xyz
   'x, y, z'

loop_
   _atom_site_label
   _atom_site_occupancy
   _atom_site_fract_x
   _atom_site_fract_y
   _atom_site_fract_z
   _atom_site_adp_type
   _atom_site_B_iso_or_equiv
   _atom_site_type_symbol
   Au1        1.0     0.458620      0.486207      0.100000     Biso  1.000000 Au
   Au2        1.0     0.486207      0.458620      0.100000     Biso  1.000000 Au
   Au3        1.0     0.513793      0.486207      0.100000     Biso  1.000000 Au
   Au4        1.0     0.541380      0.458620      0.100000     Biso  1.000000 Au
   Au5        1.0     0.458620      0.541380      0.100000     Biso  1.000000 Au
   Au6        1.0     0.486207      0.513793      0.100000     Biso  1.000000 Au
   Au7        1.0     0.513793      0.541380      0.100000     Biso  1.000000 Au
   Au8        1.0     0.541380      0.513793      0.100000     Biso  1.000000 Au
   Au9        1.0     0.403448      0.320690      0.155171     Biso  1.000000 Au
   Au10       1.0     0.458620      0.320690      0.155171     Biso  1.000000 Au
   Au11       1.0     0.486207      0.293103      0.155171     Biso  1.000000 Au
   Au12       1.0     0.513793      0.320690      0.155171     Biso  1.000000 Au
   Au13       1.0     0.541380      0.293103      0.155171     Biso  1.000000 Au
   Au14       1.0     0.568965      0.320690      0.155171     Biso  1.000000 Au
   Au15       1.0     0.348275      0.375862      0.155171     Biso  1.000000 Au
   Au16       1.0     0.375862      0.348275      0.155171     Biso  1.000000 Au
   Au17       1.0     0.403448      0.375862      0.155171     Biso  1.000000 Au
   Au18       1.0     0.431035      0.348275      0.155171     Biso  1.000000 Au
   Au19       1.0     0.431035      0.375862      0.127586     Biso  1.000000 Au
   Au20       1.0     0.458620      0.348275      0.127586     Biso  1.000000 Au
   Au21       1.0     0.458620      0.375862      0.155171     Biso  1.000000 Au
   Au22       1.0     0.486207      0.348275      0.155171     Biso  1.000000 Au
   Au23       1.0     0.486207      0.375862      0.127586     Biso  1.000000 Au
   Au24       1.0     0.513793      0.348275      0.127586     Biso  1.000000 Au
   Au25       1.0     0.513793      0.375862      0.155171     Biso  1.000000 Au
   Au26       1.0     0.541380      0.348275      0.155171     Biso  1.000000 Au
   Au27       1.0     0.541380      0.375862      0.127586     Biso  1.000000 Au
   Au28       1.0     0.568965      0.375862      0.155171     Biso  1.000000 Au
   Au29       1.0     0.596551      0.348275      0.155171     Biso  1.000000 Au
   Au30       1.0     0.596551      0.375862      0.127586     Biso  1.000000 Au
   Au31       1.0     0.624138      0.375862      0.155171     Biso  1.000000 Au
   Au32       1.0     0.320690      0.403448      0.155171     Biso  1.000000 Au
   Au33       1.0     0.348275      0.431035      0.155171     Biso  1.000000 Au
   Au34       1.0     0.375862      0.403448      0.155171     Biso  1.000000 Au
   Au35       1.0     0.375862      0.431035      0.127586     Biso  1.000000 Au
   Au36       1.0     0.403448      0.403448      0.127586     Biso  1.000000 Au
   Au37       1.0     0.403448      0.431035      0.155171     Biso  1.000000 Au
   Au38       1.0     0.431035      0.403448      0.155171     Biso  1.000000 Au
   Au39       1.0     0.431035      0.431035      0.127586     Biso  1.000000 Au
   Au40       1.0     0.458620      0.403448      0.127586     Biso  1.000000 Au
   Au41       1.0     0.458620      0.431035      0.155171     Biso  1.000000 Au
   Au42       1.0     0.486207      0.403448      0.155171     Biso  1.000000 Au
   Au43       1.0     0.486207      0.431035      0.127586     Biso  1.000000 Au
   Au44       1.0     0.513793      0.403448      0.127586     Biso  1.000000 Au
   Au45       1.0     0.513793      0.431035      0.155171     Biso  1.000000 Au
   Au46       1.0     0.541380      0.403448      0.155171     Biso  1.000000 Au
   Au47       1.0     0.541380      0.431035      0.127586     Biso  1.000000 Au
   Au48       1.0     0.568965      0.403448      0.127586     Biso  1.000000 Au
   Au49       1.0     0.568965      0.431035      0.155171     Biso  1.000000 Au
   Au50       1.0     0.596551      0.403448      0.155171     Biso  1.000000 Au
   Au51       1.0     0.596551      0.431035      0.127586     Biso  1.000000 Au
   Au52       1.0     0.624138      0.403448      0.127586     Biso  1.000000 Au
   Au53       1.0     0.624138      0.431035      0.155171     Biso  1.000000 Au
   Au54       1.0     0.651725      0.403448      0.155171     Biso  1.000000 Au
   Au55       1.0     0.679310      0.431035      0.155171     Biso  1.000000 Au
   Au56       1.0     0.293103      0.486207      0.155171     Biso  1.000000 Au
   Au57       1.0     0.320690      0.458620      0.155171     Biso  1.000000 Au
   Au58       1.0     0.348275      0.458620      0.127586     Biso  1.000000 Au
   Au59       1.0     0.348275      0.486207      0.155171     Biso  1.000000 Au
   Au60       1.0     0.375862      0.458620      0.155171     Biso  1.000000 Au
   Au61       1.0     0.375862      0.486207      0.127586     Biso  1.000000 Au
   Au62       1.0     0.403448      0.458620      0.127586     Biso  1.000000 Au
   Au63       1.0     0.403448      0.486207      0.155171     Biso  1.000000 Au
   Au64       1.0     0.431035      0.458620      0.155171     Biso  1.000000 Au
   Au65       1.0     0.431035      0.486207      0.127586     Biso  1.000000 Au
   Au66       1.0     0.458620      0.458620      0.127586     Biso  1.000000 Au
   Au67       1.0     0.458620      0.486207      0.155171     Biso  1.000000 Au
   Au68       1.0     0.486207      0.458620      0.155171     Biso  1.000000 Au
   Au69       1.0     0.486207      0.486207      0.127586     Biso  1.000000 Au
   Au70       1.0     0.513793      0.458620      0.127586     Biso  1.000000 Au
   Au71       1.0     0.513793      0.486207      0.155171     Biso  1.000000 Au
   Au72       1.0     0.541380      0.458620      0.155171     Biso  1.000000 Au
   Au73       1.0     0.541380      0.486207      0.127586     Biso  1.000000 Au
   Au74       1.0     0.568965      0.458620      0.127586     Biso  1.000000 Au
   Au75       1.0     0.568965      0.486207      0.155171     Biso  1.000000 Au
   Au76       1.0     0.596551      0.458620      0.155171     Biso  1.000000 Au
   Au77       1.0     0.596551      0.486207      0.127586     Biso  1.000000 Au
   Au78       1.0     0.624138      0.458620      0.127586     Biso  1.000000 Au
   Au79       1.0     0.624138      0.486207      0.155171     Biso  1.000000 Au
   Au80       1.0     0.651725      0.458620      0.155171     Biso  1.000000 Au
   Au81       1.0     0.651725      0.486207      0.127586     Biso  1.000000 Au
   Au82       1.0     0.679310      0.486207      0.155171     Biso  1.000000 Au
   Au83       1.0     0.706897      0.458620      0.155171     Biso  1.000000 Au
   Au84       1.0     0.293103      0.541380      0.155171     Biso  1.000000 Au
   Au85       1.0     0.320690      0.513793      0.155171     Biso  1.000000 Au
   Au86       1.0     0.348275      0.513793      0.127586     Biso  1.000000 Au
   Au87       1.0     0.348275      0.541380      0.155171     Biso  1.000000 Au
   Au88       1.0     0.375862      0.513793      0.155171     Biso  1.000000 Au
   Au89       1.0     0.375862      0.541380      0.127586     Biso  1.000000 Au
   Au90       1.0     0.403448      0.513793      0.127586     Biso  1.000000 Au
   Au91       1.0     0.403448      0.541380      0.155171     Biso  1.000000 Au
   Au92       1.0     0.431035      0.513793      0.155171     Biso  1.000000 Au
   Au93       1.0     0.431035      0.541380      0.127586     Biso  1.000000 Au
   Au94       1.0     0.458620      0.513793      0.127586     Biso  1.000000 Au
   Au95       1.0     0.458620      0.541380      0.155171     Biso  1.000000 Au
   Au96       1.0     0.486207      0.513793      0.155171     Biso  1.000000 Au
   Au97       1.0     0.486207      0.541380      0.127586     Biso  1.000000 Au
   Au98       1.0     0.513793      0.513793      0.127586     Biso  1.000000 Au
   Au99       1.0     0.513793      0.541380      0.155171     Biso  1.000000 Au
   Au100      1.0     0.541380      0.513793      0.155171     Biso  1.000000 Au
   Au101      1.0     0.541380      0.541380      0.127586     Biso  1.000000 Au
   Au102      1.0     0.568965      0.513793      0.127586     Biso  1.000000 Au
   Au103      1.0     0.568965      0.541380      0.155171     Biso  1.000000 Au
   Au104      1.0     0.596551      0.513793      0.155171     Biso  1.000000 Au
   Au105      1.0     0.596551      0.541380      0.127586     Biso  1.000000 Au
   Au106      1.0     0.624138      0.513793      0.127586     Biso  1.000000 Au
   Au107      1.0     0.624138      0.541380      0.155171     Biso  1.000000 Au
   Au108      1.0     0.651725      0.513793      0.155171     Biso  1.000000 Au
   Au109      1.0     0.651725      0.541380      0.127586     Biso  1.000000 Au
   Au110      1.0     0.679310      0.541380      0.155171     Biso  1.000000 Au
   Au111      1.0     0.706897      0.513793      0.155171     Biso  1.000000 Au
   Au112      1.0     0.320690      0.568965      0.155171     Biso  1.000000 Au
   Au113      1.0     0.348275      0.596551      0.155171     Biso  1.000000 Au
   Au114      1.0     0.375862      0.568965      0.155171     Biso  1.000000 Au
   Au115      1.0     0.375862      0.596551      0.127586     Biso  1.000000 Au
   Au116      1.0     0.403448      0.568965      0.127586     Biso  1.000000 Au
   Au117      1.0     0.403448      0.596551      0.155171     Biso  1.000000 Au
   Au118      1.0     0.431035      0.568965      0.155171     Biso  1.000000 Au
   Au119      1.0     0.431035      0.596551      0.127586     Biso  1.000000 Au
   Au120      1.0     0.458620      0.568965      0.127586     Biso  1.000000 Au
   Au121      1.0     0.458620      0.596551      0.155171     Biso  1.000000 Au
   Au122      1.0     0.486207      0.568965      0.155171     Biso  1.000000 Au
   Au123      1.0     0.486207      0.596551      0.127586     Biso  1.000000 Au
   Au124      1.0     0.513793      0.568965      0.127586     Biso  1.000000 Au
   Au125      1.0     0.513793      0.596551      0.155171     Biso  1.000000 Au
   Au126      1.0     0.541380      0.568965      0.155171     Biso  1.000000 Au
   Au127      1.0     0.541380      0.596551      0.127586     Biso  1.000000 Au
   Au128      1.0     0.568965      0.568965      0.127586     Biso  1.000000 Au
   Au129      1.0     0.568965      0.596551      0.155171     Biso  1.000000 Au
   Au130      1.0     0.596551      0.568965      0.155171     Biso  1.000000 Au
   Au131      1.0     0.596551      0.596551      0.127586     Biso  1.000000 Au
   Au132      1.0     0.624138      0.568965      0.127586     Biso  1.000000 Au
   Au133      1.0     0.624138      0.596551      0.155171     Biso  1.000000 Au
   Au134      1.0     0.651725      0.568965      0.155171     Biso  1.000000 Au
   Au135      1.0     0.679310      0.596551      0.155171     Biso  1.000000 Au
   Au136      1.0     0.375862      0.624138      0.155171     Biso  1.000000 Au
   Au137      1.0     0.403448      0.624138      0.127586     Biso  1.000000 Au
   Au138      1.0     0.403448      0.651725      0.155171     Biso  1.000000 Au
   Au139      1.0     0.431035      0.624138      0.155171     Biso  1.000000 Au
   Au140      1.0     0.458620      0.624138      0.127586     Biso  1.000000 Au
   Au141      1.0     0.458620      0.651725      0.155171     Biso  1.000000 Au
   Au142      1.0     0.486207      0.624138      0.155171     Biso  1.000000 Au
   Au143      1.0     0.486207      0.651725      0.127586     Biso  1.000000 Au
   Au144      1.0     0.513793      0.624138      0.127586     Biso  1.000000 Au
   Au145      1.0     0.513793      0.651725      0.155171     Biso  1.000000 Au
   Au146      1.0     0.541380      0.624138      0.155171     Biso  1.000000 Au
   Au147      1.0     0.541380      0.651725      0.127586     Biso  1.000000 Au
   Au148      1.0     0.568965      0.624138      0.127586     Biso  1.000000 Au
   Au149      1.0     0.568965      0.651725      0.155171     Biso  1.000000 Au
   Au150      1.0     0.596551      0.624138      0.155171     Biso  1.000000 Au
   Au151      1.0     0.624138      0.651725      0.155171     Biso  1.000000 Au
   Au152      1.0     0.651725      0.624138      0.155171     Biso  1.000000 Au
   Au153      1.0     0.431035      0.679310      0.155171     Biso  1.000000 Au
   Au154      1.0     0.458620      0.706897      0.155171     Biso  1.000000 Au
   Au155      1.0     0.486207      0.679310      0.155171     Biso  1.000000 Au
   Au156      1.0     0.513793      0.706897      0.155171     Biso  1.000000 Au
   Au157      1.0     0.541380      0.679310      0.155171     Biso  1.000000 Au
   Au158      1.0     0.596551      0.679310      0.155171     Biso  1.000000 Au
   Au159      1.0     0.348275      0.265517      0.210345     Biso  1.000000 Au
   Au160      1.0     0.403448      0.265517      0.210345     Biso  1.000000 Au
   Au161      1.0     0.431035      0.237930      0.210345     Biso  1.000000 Au
   Au162      1.0     0.431035      0.265517      0.182758     Biso  1.000000 Au
   Au163      1.0     0.458620      0.265517      0.210345     Biso  1.000000 Au
   Au164      1.0     0.486207      0.237930      0.210345     Biso  1.000000 Au
   Au165      1.0     0.486207      0.265517      0.182758     Biso  1.000000 Au
   Au166      1.0     0.513793      0.265517      0.210345     Biso  1.000000 Au
   Au167      1.0     0.541380      0.237930      0.210345     Biso  1.000000 Au
   Au168      1.0     0.541380      0.265517      0.182758     Biso  1.000000 Au
   Au169      1.0     0.568965      0.265517      0.210345     Biso  1.000000 Au
   Au170      1.0     0.596551      0.237930      0.210345     Biso  1.000000 Au
   Au171      1.0     0.624138      0.265517      0.210345     Biso  1.000000 Au
   Au172      1.0     0.293103      0.320690      0.210345     Biso  1.000000 Au
   Au173      1.0     0.320690      0.293103      0.210345     Biso  1.000000 Au
   Au174      1.0     0.348275      0.320690      0.210345     Biso  1.000000 Au
   Au175      1.0     0.375862      0.293103      0.210345     Biso  1.000000 Au
   Au176      1.0     0.375862      0.320690      0.182758     Biso  1.000000 Au
   Au177      1.0     0.403448      0.293103      0.182758     Biso  1.000000 Au
   Au178      1.0     0.403448      0.320690      0.210345     Biso  1.000000 Au
   Au179      1.0     0.431035      0.293103      0.210345     Biso  1.000000 Au
   Au180      1.0     0.431035      0.320690      0.182758     Biso  1.000000 Au
   Au181      1.0     0.458620      0.293103      0.182758     Biso  1.000000 Au
   Au182      1.0     0.458620      0.320690      0.210345     Biso  1.000000 Au
   Au183      1.0     0.486207      0.293103      0.210345     Biso  1.000000 Au
   Au184      1.0     0.486207      0.320690      0.182758     Biso  1.000000 Au
   Au185      1.0     0.513793      0.293103      0.182758     Biso  1.000000 Au
   Au186      1.0     0.513793      0.320690      0.210345     Biso  1.000000 Au
   Au187      1.0     0.541380      0.293103      0.210345     Biso  1.000000 Au
   Au188      1.0     0.541380      0.320690      0.182758     Biso  1.000000 Au
   Au189      1.0     0.568965      0.293103      0.182758     Biso  1.000000 Au
   Au190      1.0     0.568965      0.320690      0.210345     Biso  1.000000 Au
   Au191      1.0     0.596551      0.293103      0.210345     Biso  1.000000 Au
   Au192      1.0     0.596551      0.320690      0.182758     Biso  1.000000 Au
   Au193      1.0     0.624138      0.293103      0.182758     Biso  1.000000 Au
   Au194      1.0     0.624138      0.320690      0.210345     Biso  1.000000 Au
   Au195      1.0     0.651725      0.293103      0.210345     Biso  1.000000 Au
   Au196      1.0     0.651725      0.320690      0.182758     Biso  1.000000 Au
   Au197      1.0     0.679310      0.320690      0.210345     Biso  1.000000 Au
   Au198      1.0     0.265517      0.348275      0.210345     Biso  1.000000 Au
   Au199      1.0     0.293103      0.375862      0.210345     Biso  1.000000 Au
   Au200      1.0     0.320690      0.348275      0.210345     Biso  1.000000 Au
   Au201      1.0     0.320690      0.375862      0.182758     Biso  1.000000 Au
   Au202      1.0     0.348275      0.348275      0.182758     Biso  1.000000 Au
   Au203      1.0     0.348275      0.375862      0.210345     Biso  1.000000 Au
   Au204      1.0     0.375862      0.348275      0.210345     Biso  1.000000 Au
   Au205      1.0     0.375862      0.375862      0.182758     Biso  1.000000 Au
   Au206      1.0     0.403448      0.348275      0.182758     Biso  1.000000 Au
   Au207      1.0     0.403448      0.375862      0.210345     Biso  1.000000 Au
   Au208      1.0     0.431035      0.348275      0.210345     Biso  1.000000 Au
   Au209      1.0     0.431035      0.375862      0.182758     Biso  1.000000 Au
   Au210      1.0     0.458620      0.348275      0.182758     Biso  1.000000 Au
   Au211      1.0     0.458620      0.375862      0.210345     Biso  1.000000 Au
   Au212      1.0     0.486207      0.348275      0.210345     Biso  1.000000 Au
   Au213      1.0     0.486207      0.375862      0.182758     Biso  1.000000 Au
   Au214      1.0     0.513793      0.348275      0.182758     Biso  1.000000 Au
   Au215      1.0     0.513793      0.375862      0.210345     Biso  1.000000 Au
   Au216      1.0     0.541380      0.348275      0.210345     Biso  1.000000 Au
   Au217      1.0     0.541380      0.375862      0.182758     Biso  1.000000 Au
   Au218      1.0     0.568965      0.348275      0.182758     Biso  1.000000 Au
   Au219      1.0     0.568965      0.375862      0.210345     Biso  1.000000 Au
   Au220      1.0     0.596551      0.348275      0.210345     Biso  1.000000 Au
   Au221      1.0     0.596551      0.375862      0.182758     Biso  1.000000 Au
   Au222      1.0     0.624138      0.348275      0.182758     Biso  1.000000 Au
   Au223      1.0     0.624138      0.375862      0.210345     Biso  1.000000 Au
   Au224      1.0     0.651725      0.348275      0.210345     Biso  1.000000 Au
   Au225      1.0     0.651725      0.375862      0.182758     Biso  1.000000 Au
   Au226      1.0     0.679310      0.348275      0.182758     Biso  1.000000 Au
   Au227      1.0     0.679310      0.375862      0.210345     Biso  1.000000 Au
   Au228      1.0     0.706897      0.348275      0.210345     Biso  1.000000 Au
   Au229      1.0     0.706897      0.375862      0.182758     Biso  1.000000 Au
   Au230      1.0     0.734483      0.375862      0.210345     Biso  1.000000 Au
   Au231      1.0     0.237930      0.431035      0.210345     Biso  1.000000 Au
   Au232      1.0     0.265517      0.403448      0.210345     Biso  1.000000 Au
   Au233      1.0     0.265517      0.431035      0.182758     Biso  1.000000 Au
   Au234      1.0     0.293103      0.403448      0.182758     Biso  1.000000 Au
   Au235      1.0     0.293103      0.431035      0.210345     Biso  1.000000 Au
   Au236      1.0     0.320690      0.403448      0.210345     Biso  1.000000 Au
   Au237      1.0     0.320690      0.431035      0.182758     Biso  1.000000 Au
   Au238      1.0     0.348275      0.403448      0.182758     Biso  1.000000 Au
   Au239      1.0     0.348275      0.431035      0.210345     Biso  1.000000 Au
   Au240      1.0     0.375862      0.403448      0.210345     Biso  1.000000 Au
   Au241      1.0     0.375862      0.431035      0.182758     Biso  1.000000 Au
   Au242      1.0     0.403448      0.403448      0.182758     Biso  1.000000 Au
   Au243      1.0     0.403448      0.431035      0.210345     Biso  1.000000 Au
   Au244      1.0     0.431035      0.403448      0.210345     Biso  1.000000 Au
   Au245      1.0     0.431035      0.431035      0.182758     Biso  1.000000 Au
   Au246      1.0     0.458620      0.403448      0.182758     Biso  1.000000 Au
   Au247      1.0     0.458620      0.431035      0.210345     Biso  1.000000 Au
   Au248      1.0     0.486207      0.403448      0.210345     Biso  1.000000 Au
   Au249      1.0     0.486207      0.431035      0.182758     Biso  1.000000 Au
   Au250      1.0     0.513793      0.403448      0.182758     Biso  1.000000 Au
   Au251      1.0     0.513793      0.431035      0.210345     Biso  1.000000 Au
   Au252      1.0     0.541380      0.403448      0.210345     Biso  1.000000 Au
   Au253      1.0     0.541380      0.431035      0.182758     Biso  1.000000 Au
   Au254      1.0     0.568965      0.403448      0.182758     Biso  1.000000 Au
   Au255      1.0     0.568965      0.431035      0.210345     Biso  1.000000 Au
   Au256      1.0     0.596551      0.403448      0.210345     Biso  1.000000 Au
   Au257      1.0     0.596551      0.431035      0.182758     Biso  1.000000 Au
   Au258      1.0     0.624138      0.403448      0.182758     Biso  1.000000 Au
   Au259      1.0     0.624138      0.431035      0.210345     Biso  1.000000 Au
   Au260      1.0     0.651725      0.403448      0.210345     Biso  1.000000 Au
   Au261      1.0     0.651725      0.431035      0.182758     Biso  1.000000 Au
   Au262      1.0     0.679310      0.403448      0.182758     Biso  1.000000 Au
   Au263      1.0     0.679310      0.431035      0.210345     Biso  1.000000 Au
   Au264      1.0     0.706897      0.403448      0.210345     Biso  1.000000 Au
   Au265      1.0     0.706897      0.431035      0.182758     Biso  1.000000 Au
   Au266      1.0     0.734483      0.431035      0.210345     Biso  1.000000 Au
   Au267      1.0     0.762070      0.403448      0.210345     Biso  1.000000 Au
   Au268      1.0     0.237930      0.486207      0.210345     Biso  1.000000 Au
   Au269      1.0     0.265517      0.458620      0.210345     Biso  1.000000 Au
   Au270      1.0     0.265517      0.486207      0.182758     Biso  1.000000 Au
   Au271      1.0     0.293103      0.458620      0.182758     Biso  1.000000 Au
   Au272      1.0     0.293103      0.486207      0.210345     Biso  1.000000 Au
   Au273      1.0     0.320690      0.458620      0.210345     Biso  1.000000 Au
   Au274      1.0     0.320690      0.486207      0.182758     Biso  1.000000 Au
   Au275      1.0     0.348275      0.458620      0.182758     Biso  1.000000 Au
   Au276      1.0     0.348275      0.486207      0.210345     Biso  1.000000 Au
   Au277      1.0     0.375862      0.458620      0.210345     Biso  1.000000 Au
   Au278      1.0     0.375862      0.486207      0.182758     Biso  1.000000 Au
   Au279      1.0     0.403448      0.458620      0.182758     Biso  1.000000 Au
   Au280      1.0     0.403448      0.486207      0.210345     Biso  1.000000 Au
   Au281      1.0     0.431035      0.458620      0.210345     Biso  1.000000 Au
   Au282      1.0     0.431035      0.486207      0.182758     Biso  1.000000 Au
   Au283      1.0     0.458620      0.458620      0.182758     Biso  1.000000 Au
   Au284      1.0     0.458620      0.486207      0.210345     Biso  1.000000 Au
   Au285      1.0     0.486207      0.458620      0.210345     Biso  1.000000 Au
   Au286      1.0     0.486207      0.486207      0.182758     Biso  1.000000 Au
   Au287      1.0     0.513793      0.458620      0.182758     Biso  1.000000 Au
   Au288      1.0     0.513793      0.486207      0.210345     Biso  1.000000 Au
   Au289      1.0     0.541380      0.458620      0.210345     Biso  1.000000 Au
   Au290      1.0     0.541380      0.486207      0.182758     Biso  1.000000 Au
   Au291      1.0     0.568965      0.458620      0.182758     Biso  1.000000 Au
   Au292      1.0     0.568965      0.486207      0.210345     Biso  1.000000 Au
   Au293      1.0     0.596551      0.458620      0.210345     Biso  1.000000 Au
   Au294      1.0     0.596551      0.486207      0.182758     Biso  1.000000 Au
   Au295      1.0     0.624138      0.458620      0.182758     Biso  1.000000 Au
   Au296      1.0     0.624138      0.486207      0.210345     Biso  1.000000 Au
   Au297      1.0     0.651725      0.458620      0.210345     Biso  1.000000 Au
   Au298      1.0     0.651725      0.486207      0.182758     Biso  1.000000 Au
   Au299      1.0     0.679310      0.458620      0.182758     Biso  1.000000 Au
   Au300      1.0     0.679310      0.486207      0.210345     Biso  1.000000 Au
   Au301      1.0     0.706897      0.458620      0.210345     Biso  1.000000 Au
   Au302      1.0     0.706897      0.486207      0.182758     Biso  1.000000 Au
   Au303      1.0     0.734483      0.458620      0.182758     Biso  1.000000 Au
   Au304      1.0     0.734483      0.486207      0.210345     Biso  1.000000 Au
   Au305      1.0     0.762070      0.458620      0.210345     Biso  1.000000 Au
   Au306      1.0     0.237930      0.541380      0.210345     Biso  1.000000 Au
   Au307      1.0     0.265517      0.513793      0.210345     Biso  1.000000 Au
   Au308      1.0     0.265517      0.541380      0.182758     Biso  1.000000 Au
   Au309      1.0     0.293103      0.513793      0.182758     Biso  1.000000 Au
   Au310      1.0     0.293103      0.541380      0.210345     Biso  1.000000 Au
   Au311      1.0     0.320690      0.513793      0.210345     Biso  1.000000 Au
   Au312      1.0     0.320690      0.541380      0.182758     Biso  1.000000 Au
   Au313      1.0     0.348275      0.513793      0.182758     Biso  1.000000 Au
   Au314      1.0     0.348275      0.541380      0.210345     Biso  1.000000 Au
   Au315      1.0     0.375862      0.513793      0.210345     Biso  1.000000 Au
   Au316      1.0     0.375862      0.541380      0.182758     Biso  1.000000 Au
   Au317      1.0     0.403448      0.513793      0.182758     Biso  1.000000 Au
   Au318      1.0     0.403448      0.541380      0.210345     Biso  1.000000 Au
   Au319      1.0     0.431035      0.513793      0.210345     Biso  1.000000 Au
   Au320      1.0     0.431035      0.541380      0.182758     Biso  1.000000 Au
   Au321      1.0     0.458620      0.513793      0.182758     Biso  1.000000 Au
   Au322      1.0     0.458620      0.541380      0.210345     Biso  1.000000 Au
   Au323      1.0     0.486207      0.513793      0.210345     Biso  1.000000 Au
   Au324      1.0     0.486207      0.541380      0.182758     Biso  1.000000 Au
   Au325      1.0     0.513793      0.513793      0.182758     Biso  1.000000 Au
   Au326      1.0     0.513793      0.541380      0.210345     Biso  1.000000 Au
   Au327      1.0     0.541380      0.513793      0.210345     Biso  1.000000 Au
   Au328      1.0     0.541380      0.541380      0.182758     Biso  1.000000 Au
   Au329      1.0     0.568965      0.513793      0.182758     Biso  1.000000 Au
   Au330      1.0     0.568965      0.541380      0.210345     Biso  1.000000 Au
   Au331      1.0     0.596551      0.513793      0.210345     Biso  1.000000 Au
   Au332      1.0     0.596551      0.541380      0.182758     Biso  1.000000 Au
   Au333      1.0     0.624138      0.513793      0.182758     Biso  1.000000 Au
   Au334      1.0     0.624138      0.541380      0.210345     Biso  1.000000 Au
   Au335      1.0     0.651725      0.513793      0.210345     Biso  1.000000 Au
   Au336      1.0     0.651725      0.541380      0.182758     Biso  1.000000 Au
   Au337      1.0     0.679310      0.513793      0.182758     Biso  1.000000 Au
   Au338      1.0     0.679310      0.541380      0.210345     Biso  1.000000 Au
   Au339      1.0     0.706897      0.513793      0.210345     Biso  1.000000 Au
   Au340      1.0     0.706897      0.541380      0.182758     Biso  1.000000 Au
   Au341      1.0     0.734483      0.513793      0.182758     Biso  1.000000 Au
   Au342      1.0     0.734483      0.541380      0.210345     Biso  1.000000 Au
   Au343      1.0     0.762070      0.513793      0.210345     Biso  1.000000 Au
   Au344      1.0     0.237930      0.596551      0.210345     Biso  1.000000 Au
   Au345      1.0     0.265517      0.568965      0.210345     Biso  1.000000 Au
   Au346      1.0     0.293103      0.568965      0.182758     Biso  1.000000 Au
   Au347      1.0     0.293103      0.596551      0.210345     Biso  1.000000 Au
   Au348      1.0     0.320690      0.568965      0.210345     Biso  1.000000 Au
   Au349      1.0     0.320690      0.596551      0.182758     Biso  1.000000 Au
   Au350      1.0     0.348275      0.568965      0.182758     Biso  1.000000 Au
   Au351      1.0     0.348275      0.596551      0.210345     Biso  1.000000 Au
   Au352      1.0     0.375862      0.568965      0.210345     Biso  1.000000 Au
   Au353      1.0     0.375862      0.596551      0.182758     Biso  1.000000 Au
   Au354      1.0     0.403448      0.568965      0.182758     Biso  1.000000 Au
   Au355      1.0     0.403448      0.596551      0.210345     Biso  1.000000 Au
   Au356      1.0     0.431035      0.568965      0.210345     Biso  1.000000 Au
   Au357      1.0     0.431035      0.596551      0.182758     Biso  1.000000 Au
   Au358      1.0     0.458620      0.568965      0.182758     Biso  1.000000 Au
   Au359      1.0     0.458620      0.596551      0.210345     Biso  1.000000 Au
   Au360      1.0     0.486207      0.568965      0.210345     Biso  1.000000 Au
   Au361      1.0     0.486207      0.596551      0.182758     Biso  1.000000 Au
   Au362      1.0     0.513793      0.568965      0.182758     Biso  1.000000 Au
   Au363      1.0     0.513793      0.596551      0.210345     Biso  1.000000 Au
   Au364      1.0     0.541380      0.568965      0.210345     Biso  1.000000 Au
   Au365      1.0     0.541380      0.596551      0.182758     Biso  1.000000 Au
   Au366      1.0     0.568965      0.568965      0.182758     Biso  1.000000 Au
   Au367      1.0     0.568965      0.596551      0.210345     Biso  1.000000 Au
   Au368      1.0     0.596551      0.568965      0.210345     Biso  1.000000 Au
   Au369      1.0     0.596551      0.596551      0.182758     Biso  1.000000 Au
   Au370      1.0     0.624138      0.568965      0.182758     Biso  1.000000 Au
   Au371      1.0     0.624138      0.596551      0.210345     Biso  1.000000 Au
   Au372      1.0     0.651725      0.568965      0.210345     Biso  1.000000 Au
   Au373      1.0     0.651725      0.596551      0.182758     Biso  1.000000 Au
   Au374      1.0     0.679310      0.568965      0.182758     Biso  1.000000 Au
   Au375      1.0     0.679310      0.596551      0.210345     Biso  1.000000 Au
   Au376      1.0     0.706897      0.568965      0.210345     Biso  1.000000 Au
   Au377      1.0     0.706897      0.596551      0.182758     Biso  1.000000 Au
   Au378      1.0     0.734483      0.568965      0.182758     Biso  1.000000 Au
   Au379      1.0     0.734483      0.596551      0.210345     Biso  1.000000 Au
   Au380      1.0     0.762070      0.568965      0.210345     Biso  1.000000 Au
   Au381      1.0     0.265517      0.624138      0.210345     Biso  1.000000 Au
   Au382      1.0     0.293103      0.624138      0.182758     Biso  1.000000 Au
   Au383      1.0     0.293103      0.651725      0.210345     Biso  1.000000 Au
   Au384      1.0     0.320690      0.624138      0.210345     Biso  1.000000 Au
   Au385      1.0     0.320690      0.651725      0.182758     Biso  1.000000 Au
   Au386      1.0     0.348275      0.624138      0.182758     Biso  1.000000 Au
   Au387      1.0     0.348275      0.651725      0.210345     Biso  1.000000 Au
   Au388      1.0     0.375862      0.624138      0.210345     Biso  1.000000 Au
   Au389      1.0     0.375862      0.651725      0.182758     Biso  1.000000 Au
   Au390      1.0     0.403448      0.624138      0.182758     Biso  1.000000 Au
   Au391      1.0     0.403448      0.651725      0.210345     Biso  1.000000 Au
   Au392      1.0     0.431035      0.624138      0.210345     Biso  1.000000 Au
   Au393      1.0     0.431035      0.651725      0.182758     Biso  1.000000 Au
   Au394      1.0     0.458620      0.624138      0.182758     Biso  1.000000 Au
   Au395      1.0     0.458620      0.651725      0.210345     Biso  1.000000 Au
   Au396      1.0     0.486207      0.624138      0.210345     Biso  1.000000 Au
   Au397      1.0     0.486207      0.651725      0.182758     Biso  1.000000 Au
   Au398      1.0     0.513793      0.624138      0.182758     Biso  1.000000 Au
   Au399      1.0     0.513793      0.651725      0.210345     Biso  1.000000 Au
   Au400      1.0     0.541380      0.624138      0.210345     Biso  1.000000 Au
   Au401      1.0     0.541380      0.651725      0.182758     Biso  1.000000 Au
   Au402      1.0     0.568965      0.624138      0.182758     Biso  1.000000 Au
   Au403      1.0     0.568965      0.651725      0.210345     Biso  1.000000 Au
   Au404      1.0     0.596551      0.624138      0.210345     Biso  1.000000 Au
   Au405      1.0     0.596551      0.651725      0.182758     Biso  1.000000 Au
   Au406      1.0     0.624138      0.624138      0.182758     Biso  1.000000 Au
   Au407      1.0     0.624138      0.651725      0.210345     Biso  1.000000 Au
   Au408      1.0     0.651725      0.624138      0.210345     Biso  1.000000 Au
   Au409      1.0     0.651725      0.651725      0.182758     Biso  1.000000 Au
   Au410      1.0     0.679310      0.624138      0.182758     Biso  1.000000 Au
   Au411      1.0     0.679310      0.651725      0.210345     Biso  1.000000 Au
   Au412      1.0     0.706897      0.624138      0.210345     Biso  1.000000 Au
   Au413      1.0     0.734483      0.651725      0.210345     Biso  1.000000 Au
   Au414      1.0     0.320690      0.679310      0.210345     Biso  1.000000 Au
   Au415      1.0     0.348275      0.679310      0.182758     Biso  1.000000 Au
   Au416      1.0     0.348275      0.706897      0.210345     Biso  1.000000 Au
   Au417      1.0     0.375862      0.679310      0.210345     Biso  1.000000 Au
   Au418      1.0     0.375862      0.706897      0.182758     Biso  1.000000 Au
   Au419      1.0     0.403448      0.679310      0.182758     Biso  1.000000 Au
   Au420      1.0     0.403448      0.706897      0.210345     Biso  1.000000 Au
   Au421      1.0     0.431035      0.679310      0.210345     Biso  1.000000 Au
   Au422      1.0     0.431035      0.706897      0.182758     Biso  1.000000 Au
   Au423      1.0     0.458620      0.679310      0.182758     Biso  1.000000 Au
   Au424      1.0     0.458620      0.706897      0.210345     Biso  1.000000 Au
   Au425      1.0     0.486207      0.679310      0.210345     Biso  1.000000 Au
   Au426      1.0     0.486207      0.706897      0.182758     Biso  1.000000 Au
   Au427      1.0     0.513793      0.679310      0.182758     Biso  1.000000 Au
   Au428      1.0     0.513793      0.706897      0.210345     Biso  1.000000 Au
   Au429      1.0     0.541380      0.679310      0.210345     Biso  1.000000 Au
   Au430      1.0     0.541380      0.706897      0.182758     Biso  1.000000 Au
   Au431      1.0     0.568965      0.679310      0.182758     Biso  1.000000 Au
   Au432      1.0     0.568965      0.706897      0.210345     Biso  1.000000 Au
   Au433      1.0     0.596551      0.679310      0.210345     Biso  1.000000 Au
   Au434      1.0     0.596551      0.706897      0.182758     Biso  1.000000 Au
   Au435      1.0     0.624138      0.679310      0.182758     Biso  1.000000 Au
   Au436      1.0     0.624138      0.706897      0.210345     Biso  1.000000 Au
   Au437      1.0     0.651725      0.679310      0.210345     Biso  1.000000 Au
   Au438      1.0     0.679310      0.706897      0.210345     Biso  1.000000 Au
   Au439      1.0     0.706897      0.679310      0.210345     Biso  1.000000 Au
   Au440      1.0     0.375862      0.734483      0.210345     Biso  1.000000 Au
   Au441      1.0     0.403448      0.762070      0.210345     Biso  1.000000 Au
   Au442      1.0     0.431035      0.734483      0.210345     Biso  1.000000 Au
   Au443      1.0     0.458620      0.734483      0.182758     Biso  1.000000 Au
   Au444      1.0     0.458620      0.762070      0.210345     Biso  1.000000 Au
   Au445      1.0     0.486207      0.734483      0.210345     Biso  1.000000 Au
   Au446      1.0     0.513793      0.734483      0.182758     Biso  1.000000 Au
   Au447      1.0     0.513793      0.762070      0.210345     Biso  1.000000 Au
   Au448      1.0     0.541380      0.734483      0.210345     Biso  1.000000 Au
   Au449      1.0     0.568965      0.734483      0.182758     Biso  1.000000 Au
   Au450      1.0     0.568965      0.762070      0.210345     Biso  1.000000 Au
   Au451      1.0     0.596551      0.734483      0.210345     Biso  1.000000 Au
   Au452      1.0     0.651725      0.734483      0.210345     Biso  1.000000 Au
   Au453      1.0     0.348275      0.210345      0.265517     Biso  1.000000 Au
   Au454      1.0     0.403448      0.210345      0.265517     Biso  1.000000 Au
   Au455      1.0     0.431035      0.182758      0.265517     Biso  1.000000 Au
   Au456      1.0     0.431035      0.210345      0.237930     Biso  1.000000 Au
   Au457      1.0     0.458620      0.210345      0.265517     Biso  1.000000 Au
   Au458      1.0     0.486207      0.182758      0.265517     Biso  1.000000 Au
   Au459      1.0     0.486207      0.210345      0.237930     Biso  1.000000 Au
   Au460      1.0     0.513793      0.210345      0.265517     Biso  1.000000 Au
   Au461      1.0     0.541380      0.182758      0.265517     Biso  1.000000 Au
   Au462      1.0     0.541380      0.210345      0.237930     Biso  1.000000 Au
   Au463      1.0     0.568965      0.210345      0.265517     Biso  1.000000 Au
   Au464      1.0     0.596551      0.210345      0.237930     Biso  1.000000 Au
   Au465      1.0     0.624138      0.210345      0.265517     Biso  1.000000 Au
   Au466      1.0     0.293103      0.265517      0.265517     Biso  1.000000 Au
   Au467      1.0     0.320690      0.237930      0.265517     Biso  1.000000 Au
   Au468      1.0     0.320690      0.265517      0.237930     Biso  1.000000 Au
   Au469      1.0     0.348275      0.237930      0.237930     Biso  1.000000 Au
   Au470      1.0     0.348275      0.265517      0.265517     Biso  1.000000 Au
   Au471      1.0     0.375862      0.237930      0.265517     Biso  1.000000 Au
   Au472      1.0     0.375862      0.265517      0.237930     Biso  1.000000 Au
   Au473      1.0     0.403448      0.237930      0.237930     Biso  1.000000 Au
   Au474      1.0     0.403448      0.265517      0.265517     Biso  1.000000 Au
   Au475      1.0     0.431035      0.237930      0.265517     Biso  1.000000 Au
   Au476      1.0     0.431035      0.265517      0.237930     Biso  1.000000 Au
   Au477      1.0     0.458620      0.237930      0.237930     Biso  1.000000 Au
   Au478      1.0     0.458620      0.265517      0.265517     Biso  1.000000 Au
   Au479      1.0     0.486207      0.237930      0.265517     Biso  1.000000 Au
   Au480      1.0     0.486207      0.265517      0.237930     Biso  1.000000 Au
   Au481      1.0     0.513793      0.237930      0.237930     Biso  1.000000 Au
   Au482      1.0     0.513793      0.265517      0.265517     Biso  1.000000 Au
   Au483      1.0     0.541380      0.237930      0.265517     Biso  1.000000 Au
   Au484      1.0     0.541380      0.265517      0.237930     Biso  1.000000 Au
   Au485      1.0     0.568965      0.237930      0.237930     Biso  1.000000 Au
   Au486      1.0     0.568965      0.265517      0.265517     Biso  1.000000 Au
   Au487      1.0     0.596551      0.237930      0.265517     Biso  1.000000 Au
   Au488      1.0     0.596551      0.265517      0.237930     Biso  1.000000 Au
   Au489      1.0     0.624138      0.237930      0.237930     Biso  1.000000 Au
   Au490      1.0     0.624138      0.265517      0.265517     Biso  1.000000 Au
   Au491      1.0     0.651725      0.237930      0.265517     Biso  1.000000 Au
   Au492      1.0     0.651725      0.265517      0.237930     Biso  1.000000 Au
   Au493      1.0     0.679310      0.265517      0.265517     Biso  1.000000 Au
   Au494      1.0     0.237930      0.320690      0.265517     Biso  1.000000 Au
   Au495      1.0     0.265517      0.293103      0.265517     Biso  1.000000 Au
   Au496      1.0     0.265517      0.320690      0.237930     Biso  1.000000 Au
   Au497      1.0     0.293103      0.293103      0.237930     Biso  1.000000 Au
   Au498      1.0     0.293103      0.320690      0.265517     Biso  1.000000 Au
   Au499      1.0     0.320690      0.293103      0.265517     Biso  1.000000 Au
   Au500      1.0     0.320690      0.320690      0.237930     Biso  1.000000 Au
   Au501      1.0     0.348275      0.293103      0.237930     Biso  1.000000 Au
   Au502      1.0     0.348275      0.320690      0.265517     Biso  1.000000 Au
   Au503      1.0     0.375862      0.293103      0.265517     Biso  1.000000 Au
   Au504      1.0     0.375862      0.320690      0.237930     Biso  1.000000 Au
   Au505      1.0     0.403448      0.293103      0.237930     Biso  1.000000 Au
   Au506      1.0     0.403448      0.320690      0.265517     Biso  1.000000 Au
   Au507      1.0     0.431035      0.293103      0.265517     Biso  1.000000 Au
   Au508      1.0     0.431035      0.320690      0.237930     Biso  1.000000 Au
   Au509      1.0     0.458620      0.293103      0.237930     Biso  1.000000 Au
   Au510      1.0     0.458620      0.320690      0.265517     Biso  1.000000 Au
   Au511      1.0     0.486207      0.293103      0.265517     Biso  1.000000 Au
   Au512      1.0     0.486207      0.320690      0.237930     Biso  1.000000 Au
   Au513      1.0     0.513793      0.293103      0.237930     Biso  1.000000 Au
   Au514      1.0     0.513793      0.320690      0.265517     Biso  1.000000 Au
   Au515      1.0     0.541380      0.293103      0.265517     Biso  1.000000 Au
   Au516      1.0     0.541380      0.320690      0.237930     Biso  1.000000 Au
   Au517      1.0     0.568965      0.293103      0.237930     Biso  1.000000 Au
   Au518      1.0     0.568965      0.320690      0.265517     Biso  1.000000 Au
   Au519      1.0     0.596551      0.293103      0.265517     Biso  1.000000 Au
   Au520      1.0     0.596551      0.320690      0.237930     Biso  1.000000 Au
   Au521      1.0     0.624138      0.293103      0.237930     Biso  1.000000 Au
   Au522      1.0     0.624138      0.320690      0.265517     Biso  1.000000 Au
   Au523      1.0     0.651725      0.293103      0.265517     Biso  1.000000 Au
   Au524      1.0     0.651725      0.320690      0.237930     Biso  1.000000 Au
   Au525      1.0     0.679310      0.293103      0.237930     Biso  1.000000 Au
   Au526      1.0     0.679310      0.320690      0.265517     Biso  1.000000 Au
   Au527      1.0     0.706897      0.293103      0.265517     Biso  1.000000 Au
   Au528      1.0     0.706897      0.320690      0.237930     Biso  1.000000 Au
   Au529      1.0     0.734483      0.320690      0.265517     Biso  1.000000 Au
   Au530      1.0     0.210345      0.348275      0.265517     Biso  1.000000 Au
   Au531      1.0     0.237930      0.348275      0.237930     Biso  1.000000 Au
   Au532      1.0     0.237930      0.375862      0.265517     Biso  1.000000 Au
   Au533      1.0     0.265517      0.348275      0.265517     Biso  1.000000 Au
   Au534      1.0     0.265517      0.375862      0.237930     Biso  1.000000 Au
   Au535      1.0     0.293103      0.348275      0.237930     Biso  1.000000 Au
   Au536      1.0     0.293103      0.375862      0.265517     Biso  1.000000 Au
   Au537      1.0     0.320690      0.348275      0.265517     Biso  1.000000 Au
   Au538      1.0     0.320690      0.375862      0.237930     Biso  1.000000 Au
   Au539      1.0     0.348275      0.348275      0.237930     Biso  1.000000 Au
   Au540      1.0     0.348275      0.375862      0.265517     Biso  1.000000 Au
   Au541      1.0     0.375862      0.348275      0.265517     Biso  1.000000 Au
   Au542      1.0     0.375862      0.375862      0.237930     Biso  1.000000 Au
   Au543      1.0     0.403448      0.348275      0.237930     Biso  1.000000 Au
   Au544      1.0     0.403448      0.375862      0.265517     Biso  1.000000 Au
   Au545      1.0     0.431035      0.348275      0.265517     Biso  1.000000 Au
   Au546      1.0     0.431035      0.375862      0.237930     Biso  1.000000 Au
   Au547      1.0     0.458620      0.348275      0.237930     Biso  1.000000 Au
   Au548      1.0     0.458620      0.375862      0.265517     Biso  1.000000 Au
   Au549      1.0     0.486207      0.348275      0.265517     Biso  1.000000 Au
   Au550      1.0     0.486207      0.375862      0.237930     Biso  1.000000 Au
   Au551      1.0     0.513793      0.348275      0.237930     Biso  1.000000 Au
   Au552      1.0     0.513793      0.375862      0.265517     Biso  1.000000 Au
   Au553      1.0     0.541380      0.348275      0.265517     Biso  1.000000 Au
   Au554      1.0     0.541380      0.375862      0.237930     Biso  1.000000 Au
   Au555      1.0     0.568965      0.348275      0.237930     Biso  1.000000 Au
   Au556      1.0     0.568965      0.375862      0.265517     Biso  1.000000 Au
   Au557      1.0     0.596551      0.348275      0.265517     Biso  1.000000 Au
   Au558      1.0     0.596551      0.375862      0.237930     Biso  1.000000 Au
   Au559      1.0     0.624138      0.348275      0.237930     Biso  1.000000 Au
   Au560      1.0     0.624138      0.375862      0.265517     Biso  1.000000 Au
   Au561      1.0     0.651725      0.348275      0.265517     Biso  1.000000 Au
   Au562      1.0     0.651725      0.375862      0.237930     Biso  1.000000 Au
   Au563      1.0     0.679310      0.348275      0.237930     Biso  1.000000 Au
   Au564      1.0     0.679310      0.375862      0.265517     Biso  1.000000 Au
   Au565      1.0     0.706897      0.348275      0.265517     Biso  1.000000 Au
   Au566      1.0     0.706897      0.375862      0.237930     Biso  1.000000 Au
   Au567      1.0     0.734483      0.348275      0.237930     Biso  1.000000 Au
   Au568      1.0     0.734483      0.375862      0.265517     Biso  1.000000 Au
   Au569      1.0     0.762070      0.348275      0.265517     Biso  1.000000 Au
   Au570      1.0     0.762070      0.375862      0.237930     Biso  1.000000 Au
   Au571      1.0     0.789655      0.375862      0.265517     Biso  1.000000 Au
   Au572      1.0     0.182758      0.431035      0.265517     Biso  1.000000 Au
   Au573      1.0     0.210345      0.403448      0.265517     Biso  1.000000 Au
   Au574      1.0     0.210345      0.431035      0.237930     Biso  1.000000 Au
   Au575      1.0     0.237930      0.403448      0.237930     Biso  1.000000 Au
   Au576      1.0     0.237930      0.431035      0.265517     Biso  1.000000 Au
   Au577      1.0     0.265517      0.403448      0.265517     Biso  1.000000 Au
   Au578      1.0     0.265517      0.431035      0.237930     Biso  1.000000 Au
   Au579      1.0     0.293103      0.403448      0.237930     Biso  1.000000 Au
   Au580      1.0     0.293103      0.431035      0.265517     Biso  1.000000 Au
   Au581      1.0     0.320690      0.403448      0.265517     Biso  1.000000 Au
   Au582      1.0     0.320690      0.431035      0.237930     Biso  1.000000 Au
   Au583      1.0     0.348275      0.403448      0.237930     Biso  1.000000 Au
   Au584      1.0     0.348275      0.431035      0.265517     Biso  1.000000 Au
   Au585      1.0     0.375862      0.403448      0.265517     Biso  1.000000 Au
   Au586      1.0     0.375862      0.431035      0.237930     Biso  1.000000 Au
   Au587      1.0     0.403448      0.403448      0.237930     Biso  1.000000 Au
   Au588      1.0     0.403448      0.431035      0.265517     Biso  1.000000 Au
   Au589      1.0     0.431035      0.403448      0.265517     Biso  1.000000 Au
   Au590      1.0     0.431035      0.431035      0.237930     Biso  1.000000 Au
   Au591      1.0     0.458620      0.403448      0.237930     Biso  1.000000 Au
   Au592      1.0     0.458620      0.431035      0.265517     Biso  1.000000 Au
   Au593      1.0     0.486207      0.403448      0.265517     Biso  1.000000 Au
   Au594      1.0     0.486207      0.431035      0.237930     Biso  1.000000 Au
   Au595      1.0     0.513793      0.403448      0.237930     Biso  1.000000 Au
   Au596      1.0     0.513793      0.431035      0.265517     Biso  1.000000 Au
   Au597      1.0     0.541380      0.403448      0.265517     Biso  1.000000 Au
   Au598      1.0     0.541380      0.431035      0.237930     Biso  1.000000 Au
   Au599      1.0     0.568965      0.403448      0.237930     Biso  1.000000 Au
   Au600      1.0     0.568965      0.431035      0.265517     Biso  1.000000 Au
   Au601      1.0     0.596551      0.403448      0.265517     Biso  1.000000 Au
   Au602      1.0     0.596551      0.431035      0.237930     Biso  1.000000 Au
   Au603      1.0     0.624138      0.403448      0.237930     Biso  1.000000 Au
   Au604      1.0     0.624138      0.431035      0.265517     Biso  1.000000 Au
   Au605      1.0     0.651725      0.403448      0.265517     Biso  1.000000 Au
   Au606      1.0     0.651725      0.431035      0.237930     Biso  1.000000 Au
   Au607      1.0     0.679310      0.403448      0.237930     Biso  1.000000 Au
   Au608      1.0     0.679310      0.431035      0.265517     Biso  1.000000 Au
   Au609      1.0     0.706897      0.403448      0.265517     Biso  1.000000 Au
   Au610      1.0     0.706897      0.431035      0.237930     Biso  1.000000 Au
   Au611      1.0     0.734483      0.403448      0.237930     Biso  1.000000 Au
   Au612      1.0     0.734483      0.431035      0.265517     Biso  1.000000 Au
   Au613      1.0     0.762070      0.403448      0.265517     Biso  1.000000 Au
   Au614      1.0     0.762070      0.431035      0.237930     Biso  1.000000 Au
   Au615      1.0     0.789655      0.403448      0.237930     Biso  1.000000 Au
   Au616      1.0     0.789655      0.431035      0.265517     Biso  1.000000 Au
   Au617      1.0     0.182758      0.486207      0.265517     Biso  1.000000 Au
   Au618      1.0     0.210345      0.458620      0.265517     Biso  1.000000 Au
   Au619      1.0     0.210345      0.486207      0.237930     Biso  1.000000 Au
   Au620      1.0     0.237930      0.458620      0.237930     Biso  1.000000 Au
   Au621      1.0     0.237930      0.486207      0.265517     Biso  1.000000 Au
   Au622      1.0     0.265517      0.458620      0.265517     Biso  1.000000 Au
   Au623      1.0     0.265517      0.486207      0.237930     Biso  1.000000 Au
   Au624      1.0     0.293103      0.458620      0.237930     Biso  1.000000 Au
   Au625      1.0     0.293103      0.486207      0.265517     Biso  1.000000 Au
   Au626      1.0     0.320690      0.458620      0.265517     Biso  1.000000 Au
   Au627      1.0     0.320690      0.486207      0.237930     Biso  1.000000 Au
   Au628      1.0     0.348275      0.458620      0.237930     Biso  1.000000 Au
   Au629      1.0     0.348275      0.486207      0.265517     Biso  1.000000 Au
   Au630      1.0     0.375862      0.458620      0.265517     Biso  1.000000 Au
   Au631      1.0     0.375862      0.486207      0.237930     Biso  1.000000 Au
   Au632      1.0     0.403448      0.458620      0.237930     Biso  1.000000 Au
   Au633      1.0     0.403448      0.486207      0.265517     Biso  1.000000 Au
   Au634      1.0     0.431035      0.458620      0.265517     Biso  1.000000 Au
   Au635      1.0     0.431035      0.486207      0.237930     Biso  1.000000 Au
   Au636      1.0     0.458620      0.458620      0.237930     Biso  1.000000 Au
   Au637      1.0     0.458620      0.486207      0.265517     Biso  1.000000 Au
   Au638      1.0     0.486207      0.458620      0.265517     Biso  1.000000 Au
   Au639      1.0     0.486207      0.486207      0.237930     Biso  1.000000 Au
   Au640      1.0     0.513793      0.458620      0.237930     Biso  1.000000 Au
   Au641      1.0     0.513793      0.486207      0.265517     Biso  1.000000 Au
   Au642      1.0     0.541380      0.458620      0.265517     Biso  1.000000 Au
   Au643      1.0     0.541380      0.486207      0.237930     Biso  1.000000 Au
   Au644      1.0     0.568965      0.458620      0.237930     Biso  1.000000 Au
   Au645      1.0     0.568965      0.486207      0.265517     Biso  1.000000 Au
   Au646      1.0     0.596551      0.458620      0.265517     Biso  1.000000 Au
   Au647      1.0     0.596551      0.486207      0.237930     Biso  1.000000 Au
   Au648      1.0     0.624138      0.458620      0.237930     Biso  1.000000 Au
   Au649      1.0     0.624138      0.486207      0.265517     Biso  1.000000 Au
   Au650      1.0     0.651725      0.458620      0.265517     Biso  1.000000 Au
   Au651      1.0     0.651725      0.486207      0.237930     Biso  1.000000 Au
   Au652      1.0     0.679310      0.458620      0.237930     Biso  1.000000 Au
   Au653      1.0     0.679310      0.486207      0.265517     Biso  1.000000 Au
   Au654      1.0     0.706897      0.458620      0.265517     Biso  1.000000 Au
   Au655      1.0     0.706897      0.486207      0.237930     Biso  1.000000 Au
   Au656      1.0     0.734483      0.458620      0.237930     Biso  1.000000 Au
   Au657      1.0     0.734483      0.486207      0.265517     Biso  1.000000 Au
   Au658      1.0     0.762070      0.458620      0.265517     Biso  1.000000 Au
   Au659      1.0     0.762070      0.486207      0.237930     Biso  1.000000 Au
   Au660      1.0     0.789655      0.458620      0.237930     Biso  1.000000 Au
   Au661      1.0     0.789655      0.486207      0.265517     Biso  1.000000 Au
   Au662      1.0     0.817242      0.458620      0.265517     Biso  1.000000 Au
   Au663      1.0     0.182758      0.541380      0.265517     Biso  1.000000 Au
   Au664      1.0     0.210345      0.513793      0.265517     Biso  1.000000 Au
   Au665      1.0     0.210345      0.541380      0.237930     Biso  1.000000 Au
   Au666      1.0     0.237930      0.513793      0.237930     Biso  1.000000 Au
   Au667      1.0     0.237930      0.541380      0.265517     Biso  1.000000 Au
   Au668      1.0     0.265517      0.513793      0.265517     Biso  1.000000 Au
   Au669      1.0     0.265517      0.541380      0.237930     Biso  1.000000 Au
   Au670      1.0     0.293103      0.513793      0.237930     Biso  1.000000 Au
   Au671      1.0     0.293103      0.541380      0.265517     Biso  1.000000 Au
   Au672      1.0     0.320690      0.513793      0.265517     Biso  1.000000 Au
   Au673      1.0     0.320690      0.541380      0.237930     Biso  1.000000 Au
   Au674      1.0     0.348275      0.513793      0.237930     Biso  1.000000 Au
   Au675      1.0     0.348275      0.541380      0.265517     Biso  1.000000 Au
   Au676      1.0     0.375862      0.513793      0.265517     Biso  1.000000 Au
   Au677      1.0     0.375862      0.541380      0.237930     Biso  1.000000 Au
   Au678      1.0     0.403448      0.513793      0.237930     Biso  1.000000 Au
   Au679      1.0     0.403448      0.541380      0.265517     Biso  1.000000 Au
   Au680      1.0     0.431035      0.513793      0.265517     Biso  1.000000 Au
   Au681      1.0     0.431035      0.541380      0.237930     Biso  1.000000 Au
   Au682      1.0     0.458620      0.513793      0.237930     Biso  1.000000 Au
   Au683      1.0     0.458620      0.541380      0.265517     Biso  1.000000 Au
   Au684      1.0     0.486207      0.513793      0.265517     Biso  1.000000 Au
   Au685      1.0     0.486207      0.541380      0.237930     Biso  1.000000 Au
   Au686      1.0     0.513793      0.513793      0.237930     Biso  1.000000 Au
   Au687      1.0     0.513793      0.541380      0.265517     Biso  1.000000 Au
   Au688      1.0     0.541380      0.513793      0.265517     Biso  1.000000 Au
   Au689      1.0     0.541380      0.541380      0.237930     Biso  1.000000 Au
   Au690      1.0     0.568965      0.513793      0.237930     Biso  1.000000 Au
   Au691      1.0     0.568965      0.541380      0.265517     Biso  1.000000 Au
   Au692      1.0     0.596551      0.513793      0.265517     Biso  1.000000 Au
   Au693      1.0     0.596551      0.541380      0.237930     Biso  1.000000 Au
   Au694      1.0     0.624138      0.513793      0.237930     Biso  1.000000 Au
   Au695      1.0     0.624138      0.541380      0.265517     Biso  1.000000 Au
   Au696      1.0     0.651725      0.513793      0.265517     Biso  1.000000 Au
   Au697      1.0     0.651725      0.541380      0.237930     Biso  1.000000 Au
   Au698      1.0     0.679310      0.513793      0.237930     Biso  1.000000 Au
   Au699      1.0     0.679310      0.541380      0.265517     Biso  1.000000 Au
   Au700      1.0     0.706897      0.513793      0.265517     Biso  1.000000 Au
   Au701      1.0     0.706897      0.541380      0.237930     Biso  1.000000 Au
   Au702      1.0     0.734483      0.513793      0.237930     Biso  1.000000 Au
   Au703      1.0     0.734483      0.541380      0.265517     Biso  1.000000 Au
   Au704      1.0     0.762070      0.513793      0.265517     Biso  1.000000 Au
   Au705      1.0     0.762070      0.541380      0.237930     Biso  1.000000 Au
   Au706      1.0     0.789655      0.513793      0.237930     Biso  1.000000 Au
   Au707      1.0     0.789655      0.541380      0.265517     Biso  1.000000 Au
   Au708      1.0     0.817242      0.513793      0.265517     Biso  1.000000 Au
   Au709      1.0     0.210345      0.568965      0.265517     Biso  1.000000 Au
   Au710      1.0     0.210345      0.596551      0.237930     Biso  1.000000 Au
   Au711      1.0     0.237930      0.568965      0.237930     Biso  1.000000 Au
   Au712      1.0     0.237930      0.596551      0.265517     Biso  1.000000 Au
   Au713      1.0     0.265517      0.568965      0.265517     Biso  1.000000 Au
   Au714      1.0     0.265517      0.596551      0.237930     Biso  1.000000 Au
   Au715      1.0     0.293103      0.568965      0.237930     Biso  1.000000 Au
   Au716      1.0     0.293103      0.596551      0.265517     Biso  1.000000 Au
   Au717      1.0     0.320690      0.568965      0.265517     Biso  1.000000 Au
   Au718      1.0     0.320690      0.596551      0.237930     Biso  1.000000 Au
   Au719      1.0     0.348275      0.568965      0.237930     Biso  1.000000 Au
   Au720      1.0     0.348275      0.596551      0.265517     Biso  1.000000 Au
   Au721      1.0     0.375862      0.568965      0.265517     Biso  1.000000 Au
   Au722      1.0     0.375862      0.596551      0.237930     Biso  1.000000 Au
   Au723      1.0     0.403448      0.568965      0.237930     Biso  1.000000 Au
   Au724      1.0     0.403448      0.596551      0.265517     Biso  1.000000 Au
   Au725      1.0     0.431035      0.568965      0.265517     Biso  1.000000 Au
   Au726      1.0     0.431035      0.596551      0.237930     Biso  1.000000 Au
   Au727      1.0     0.458620      0.568965      0.237930     Biso  1.000000 Au
   Au728      1.0     0.458620      0.596551      0.265517     Biso  1.000000 Au
   Au729      1.0     0.486207      0.568965      0.265517     Biso  1.000000 Au
   Au730      1.0     0.486207      0.596551      0.237930     Biso  1.000000 Au
   Au731      1.0     0.513793      0.568965      0.237930     Biso  1.000000 Au
   Au732      1.0     0.513793      0.596551      0.265517     Biso  1.000000 Au
   Au733      1.0     0.541380      0.568965      0.265517     Biso  1.000000 Au
   Au734      1.0     0.541380      0.596551      0.237930     Biso  1.000000 Au
   Au735      1.0     0.568965      0.568965      0.237930     Biso  1.000000 Au
   Au736      1.0     0.568965      0.596551      0.265517     Biso  1.000000 Au
   Au737      1.0     0.596551      0.568965      0.265517     Biso  1.000000 Au
   Au738      1.0     0.596551      0.596551      0.237930     Biso  1.000000 Au
   Au739      1.0     0.624138      0.568965      0.237930     Biso  1.000000 Au
   Au740      1.0     0.624138      0.596551      0.265517     Biso  1.000000 Au
   Au741      1.0     0.651725      0.568965      0.265517     Biso  1.000000 Au
   Au742      1.0     0.651725      0.596551      0.237930     Biso  1.000000 Au
   Au743      1.0     0.679310      0.568965      0.237930     Biso  1.000000 Au
   Au744      1.0     0.679310      0.596551      0.265517     Biso  1.000000 Au
   Au745      1.0     0.706897      0.568965      0.265517     Biso  1.000000 Au
   Au746      1.0     0.706897      0.596551      0.237930     Biso  1.000000 Au
   Au747      1.0     0.734483      0.568965      0.237930     Biso  1.000000 Au
   Au748      1.0     0.734483      0.596551      0.265517     Biso  1.000000 Au
   Au749      1.0     0.762070      0.568965      0.265517     Biso  1.000000 Au
   Au750      1.0     0.762070      0.596551      0.237930     Biso  1.000000 Au
   Au751      1.0     0.789655      0.568965      0.237930     Biso  1.000000 Au
   Au752      1.0     0.789655      0.596551      0.265517     Biso  1.000000 Au
   Au753      1.0     0.817242      0.568965      0.265517     Biso  1.000000 Au
   Au754      1.0     0.210345      0.624138      0.265517     Biso  1.000000 Au
   Au755      1.0     0.237930      0.624138      0.237930     Biso  1.000000 Au
   Au756      1.0     0.237930      0.651725      0.265517     Biso  1.000000 Au
   Au757      1.0     0.265517      0.624138      0.265517     Biso  1.000000 Au
   Au758      1.0     0.265517      0.651725      0.237930     Biso  1.000000 Au
   Au759      1.0     0.293103      0.624138      0.237930     Biso  1.000000 Au
   Au760      1.0     0.293103      0.651725      0.265517     Biso  1.000000 Au
   Au761      1.0     0.320690      0.624138      0.265517     Biso  1.000000 Au
   Au762      1.0     0.320690      0.651725      0.237930     Biso  1.000000 Au
   Au763      1.0     0.348275      0.624138      0.237930     Biso  1.000000 Au
   Au764      1.0     0.348275      0.651725      0.265517     Biso  1.000000 Au
   Au765      1.0     0.375862      0.624138      0.265517     Biso  1.000000 Au
   Au766      1.0     0.375862      0.651725      0.237930     Biso  1.000000 Au
   Au767      1.0     0.403448      0.624138      0.237930     Biso  1.000000 Au
   Au768      1.0     0.403448      0.651725      0.265517     Biso  1.000000 Au
   Au769      1.0     0.431035      0.624138      0.265517     Biso  1.000000 Au
   Au770      1.0     0.431035      0.651725      0.237930     Biso  1.000000 Au
   Au771      1.0     0.458620      0.624138      0.237930     Biso  1.000000 Au
   Au772      1.0     0.458620      0.651725      0.265517     Biso  1.000000 Au
   Au773      1.0     0.486207      0.624138      0.265517     Biso  1.000000 Au
   Au774      1.0     0.486207      0.651725      0.237930     Biso  1.000000 Au
   Au775      1.0     0.513793      0.624138      0.237930     Biso  1.000000 Au
   Au776      1.0     0.513793      0.651725      0.265517     Biso  1.000000 Au
   Au777      1.0     0.541380      0.624138      0.265517     Biso  1.000000 Au
   Au778      1.0     0.541380      0.651725      0.237930     Biso  1.000000 Au
   Au779      1.0     0.568965      0.624138      0.237930     Biso  1.000000 Au
   Au780      1.0     0.568965      0.651725      0.265517     Biso  1.000000 Au
   Au781      1.0     0.596551      0.624138      0.265517     Biso  1.000000 Au
   Au782      1.0     0.596551      0.651725      0.237930     Biso  1.000000 Au
   Au783      1.0     0.624138      0.624138      0.237930     Biso  1.000000 Au
   Au784      1.0     0.624138      0.651725      0.265517     Biso  1.000000 Au
   Au785      1.0     0.651725      0.624138      0.265517     Biso  1.000000 Au
   Au786      1.0     0.651725      0.651725      0.237930     Biso  1.000000 Au
   Au787      1.0     0.679310      0.624138      0.237930     Biso  1.000000 Au
   Au788      1.0     0.679310      0.651725      0.265517     Biso  1.000000 Au
   Au789      1.0     0.706897      0.624138      0.265517     Biso  1.000000 Au
   Au790      1.0     0.706897      0.651725      0.237930     Biso  1.000000 Au
   Au791      1.0     0.734483      0.624138      0.237930     Biso  1.000000 Au
   Au792      1.0     0.734483      0.651725      0.265517     Biso  1.000000 Au
   Au793      1.0     0.762070      0.624138      0.265517     Biso  1.000000 Au
   Au794      1.0     0.762070      0.651725      0.237930     Biso  1.000000 Au
   Au795      1.0     0.789655      0.651725      0.265517     Biso  1.000000 Au
   Au796      1.0     0.265517      0.679310      0.265517     Biso  1.000000 Au
   Au797      1.0     0.293103      0.679310      0.237930     Biso  1.000000 Au
   Au798      1.0     0.293103      0.706897      0.265517     Biso  1.000000 Au
   Au799      1.0     0.320690      0.679310      0.265517     Biso  1.000000 Au
   Au800      1.0     0.320690      0.706897      0.237930     Biso  1.000000 Au
   Au801      1.0     0.348275      0.679310      0.237930     Biso  1.000000 Au
   Au802      1.0     0.348275      0.706897      0.265517     Biso  1.000000 Au
   Au803      1.0     0.375862      0.679310      0.265517     Biso  1.000000 Au
   Au804      1.0     0.375862      0.706897      0.237930     Biso  1.000000 Au
   Au805      1.0     0.403448      0.679310      0.237930     Biso  1.000000 Au
   Au806      1.0     0.403448      0.706897      0.265517     Biso  1.000000 Au
   Au807      1.0     0.431035      0.679310      0.265517     Biso  1.000000 Au
   Au808      1.0     0.431035      0.706897      0.237930     Biso  1.000000 Au
   Au809      1.0     0.458620      0.679310      0.237930     Biso  1.000000 Au
   Au810      1.0     0.458620      0.706897      0.265517     Biso  1.000000 Au
   Au811      1.0     0.486207      0.679310      0.265517     Biso  1.000000 Au
   Au812      1.0     0.486207      0.706897      0.237930     Biso  1.000000 Au
   Au813      1.0     0.513793      0.679310      0.237930     Biso  1.000000 Au
   Au814      1.0     0.513793      0.706897      0.265517     Biso  1.000000 Au
   Au815      1.0     0.541380      0.679310      0.265517     Biso  1.000000 Au
   Au816      1.0     0.541380      0.706897      0.237930     Biso  1.000000 Au
   Au817      1.0     0.568965      0.679310      0.237930     Biso  1.000000 Au
   Au818      1.0     0.568965      0.706897      0.265517     Biso  1.000000 Au
   Au819      1.0     0.596551      0.679310      0.265517     Biso  1.000000 Au
   Au820      1.0     0.596551      0.706897      0.237930     Biso  1.000000 Au
   Au821      1.0     0.624138      0.679310      0.237930     Biso  1.000000 Au
   Au822      1.0     0.624138      0.706897      0.265517     Biso  1.000000 Au
   Au823      1.0     0.651725      0.679310      0.265517     Biso  1.000000 Au
   Au824      1.0     0.651725      0.706897      0.237930     Biso  1.000000 Au
   Au825      1.0     0.679310      0.679310      0.237930     Biso  1.000000 Au
   Au826      1.0     0.679310      0.706897      0.265517     Biso  1.000000 Au
   Au827      1.0     0.706897      0.679310      0.265517     Biso  1.000000 Au
   Au828      1.0     0.706897      0.706897      0.237930     Biso  1.000000 Au
   Au829      1.0     0.734483      0.679310      0.237930     Biso  1.000000 Au
   Au830      1.0     0.734483      0.706897      0.265517     Biso  1.000000 Au
   Au831      1.0     0.762070      0.679310      0.265517     Biso  1.000000 Au
   Au832      1.0     0.320690      0.734483      0.265517     Biso  1.000000 Au
   Au833      1.0     0.348275      0.734483      0.237930     Biso  1.000000 Au
   Au834      1.0     0.348275      0.762070      0.265517     Biso  1.000000 Au
   Au835      1.0     0.375862      0.734483      0.265517     Biso  1.000000 Au
   Au836      1.0     0.375862      0.762070      0.237930     Biso  1.000000 Au
   Au837      1.0     0.403448      0.734483      0.237930     Biso  1.000000 Au
   Au838      1.0     0.403448      0.762070      0.265517     Biso  1.000000 Au
   Au839      1.0     0.431035      0.734483      0.265517     Biso  1.000000 Au
   Au840      1.0     0.431035      0.762070      0.237930     Biso  1.000000 Au
   Au841      1.0     0.458620      0.734483      0.237930     Biso  1.000000 Au
   Au842      1.0     0.458620      0.762070      0.265517     Biso  1.000000 Au
   Au843      1.0     0.486207      0.734483      0.265517     Biso  1.000000 Au
   Au844      1.0     0.486207      0.762070      0.237930     Biso  1.000000 Au
   Au845      1.0     0.513793      0.734483      0.237930     Biso  1.000000 Au
   Au846      1.0     0.513793      0.762070      0.265517     Biso  1.000000 Au
   Au847      1.0     0.541380      0.734483      0.265517     Biso  1.000000 Au
   Au848      1.0     0.541380      0.762070      0.237930     Biso  1.000000 Au
   Au849      1.0     0.568965      0.734483      0.237930     Biso  1.000000 Au
   Au850      1.0     0.568965      0.762070      0.265517     Biso  1.000000 Au
   Au851      1.0     0.596551      0.734483      0.265517     Biso  1.000000 Au
   Au852      1.0     0.596551      0.762070      0.237930     Biso  1.000000 Au
   Au853      1.0     0.624138      0.734483      0.237930     Biso  1.000000 Au
   Au854      1.0     0.624138      0.762070      0.265517     Biso  1.000000 Au
   Au855      1.0     0.651725      0.734483      0.265517     Biso  1.000000 Au
   Au856      1.0     0.651725      0.762070      0.237930     Biso  1.000000 Au
   Au857      1.0     0.679310      0.734483      0.237930     Biso  1.000000 Au
   Au858      1.0     0.679310      0.762070      0.265517     Biso  1.000000 Au
   Au859      1.0     0.706897      0.734483      0.265517     Biso  1.000000 Au
   Au860      1.0     0.375862      0.789655      0.265517     Biso  1.000000 Au
   Au861      1.0     0.403448      0.789655      0.237930     Biso  1.000000 Au
   Au862      1.0     0.431035      0.789655      0.265517     Biso  1.000000 Au
   Au863      1.0     0.458620      0.789655      0.237930     Biso  1.000000 Au
   Au864      1.0     0.458620      0.817242      0.265517     Biso  1.000000 Au
   Au865      1.0     0.486207      0.789655      0.265517     Biso  1.000000 Au
   Au866      1.0     0.513793      0.789655      0.237930     Biso  1.000000 Au
   Au867      1.0     0.513793      0.817242      0.265517     Biso  1.000000 Au
   Au868      1.0     0.541380      0.789655      0.265517     Biso  1.000000 Au
   Au869      1.0     0.568965      0.789655      0.237930     Biso  1.000000 Au
   Au870      1.0     0.568965      0.817242      0.265517     Biso  1.000000 Au
   Au871      1.0     0.596551      0.789655      0.265517     Biso  1.000000 Au
   Au872      1.0     0.651725      0.789655      0.265517     Biso  1.000000 Au
   Au873      1.0     0.403448      0.155171      0.320690     Biso  1.000000 Au
   Au874      1.0     0.458620      0.155171      0.320690     Biso  1.000000 Au
   Au875      1.0     0.486207      0.155171      0.293103     Biso  1.000000 Au
   Au876      1.0     0.513793      0.155171      0.320690     Biso  1.000000 Au
   Au877      1.0     0.541380      0.155171      0.293103     Biso  1.000000 Au
   Au878      1.0     0.568965      0.155171      0.320690     Biso  1.000000 Au
   Au879      1.0     0.293103      0.210345      0.320690     Biso  1.000000 Au
   Au880      1.0     0.320690      0.210345      0.293103     Biso  1.000000 Au
   Au881      1.0     0.348275      0.210345      0.320690     Biso  1.000000 Au
   Au882      1.0     0.375862      0.182758      0.320690     Biso  1.000000 Au
   Au883      1.0     0.375862      0.210345      0.293103     Biso  1.000000 Au
   Au884      1.0     0.403448      0.182758      0.293103     Biso  1.000000 Au
   Au885      1.0     0.403448      0.210345      0.320690     Biso  1.000000 Au
   Au886      1.0     0.431035      0.182758      0.320690     Biso  1.000000 Au
   Au887      1.0     0.431035      0.210345      0.293103     Biso  1.000000 Au
   Au888      1.0     0.458620      0.182758      0.293103     Biso  1.000000 Au
   Au889      1.0     0.458620      0.210345      0.320690     Biso  1.000000 Au
   Au890      1.0     0.486207      0.182758      0.320690     Biso  1.000000 Au
   Au891      1.0     0.486207      0.210345      0.293103     Biso  1.000000 Au
   Au892      1.0     0.513793      0.182758      0.293103     Biso  1.000000 Au
   Au893      1.0     0.513793      0.210345      0.320690     Biso  1.000000 Au
   Au894      1.0     0.541380      0.182758      0.320690     Biso  1.000000 Au
   Au895      1.0     0.541380      0.210345      0.293103     Biso  1.000000 Au
   Au896      1.0     0.568965      0.182758      0.293103     Biso  1.000000 Au
   Au897      1.0     0.568965      0.210345      0.320690     Biso  1.000000 Au
   Au898      1.0     0.596551      0.182758      0.320690     Biso  1.000000 Au
   Au899      1.0     0.596551      0.210345      0.293103     Biso  1.000000 Au
   Au900      1.0     0.624138      0.182758      0.293103     Biso  1.000000 Au
   Au901      1.0     0.624138      0.210345      0.320690     Biso  1.000000 Au
   Au902      1.0     0.651725      0.182758      0.320690     Biso  1.000000 Au
   Au903      1.0     0.651725      0.210345      0.293103     Biso  1.000000 Au
   Au904      1.0     0.679310      0.210345      0.320690     Biso  1.000000 Au
   Au905      1.0     0.237930      0.265517      0.320690     Biso  1.000000 Au
   Au906      1.0     0.265517      0.237930      0.320690     Biso  1.000000 Au
   Au907      1.0     0.265517      0.265517      0.293103     Biso  1.000000 Au
   Au908      1.0     0.293103      0.237930      0.293103     Biso  1.000000 Au
   Au909      1.0     0.293103      0.265517      0.320690     Biso  1.000000 Au
   Au910      1.0     0.320690      0.237930      0.320690     Biso  1.000000 Au
   Au911      1.0     0.320690      0.265517      0.293103     Biso  1.000000 Au
   Au912      1.0     0.348275      0.237930      0.293103     Biso  1.000000 Au
   Au913      1.0     0.348275      0.265517      0.320690     Biso  1.000000 Au
   Au914      1.0     0.375862      0.237930      0.320690     Biso  1.000000 Au
   Au915      1.0     0.375862      0.265517      0.293103     Biso  1.000000 Au
   Au916      1.0     0.403448      0.237930      0.293103     Biso  1.000000 Au
   Au917      1.0     0.403448      0.265517      0.320690     Biso  1.000000 Au
   Au918      1.0     0.431035      0.237930      0.320690     Biso  1.000000 Au
   Au919      1.0     0.431035      0.265517      0.293103     Biso  1.000000 Au
   Au920      1.0     0.458620      0.237930      0.293103     Biso  1.000000 Au
   Au921      1.0     0.458620      0.265517      0.320690     Biso  1.000000 Au
   Au922      1.0     0.486207      0.237930      0.320690     Biso  1.000000 Au
   Au923      1.0     0.486207      0.265517      0.293103     Biso  1.000000 Au
   Au924      1.0     0.513793      0.237930      0.293103     Biso  1.000000 Au
   Au925      1.0     0.513793      0.265517      0.320690     Biso  1.000000 Au
   Au926      1.0     0.541380      0.237930      0.320690     Biso  1.000000 Au
   Au927      1.0     0.541380      0.265517      0.293103     Biso  1.000000 Au
   Au928      1.0     0.568965      0.237930      0.293103     Biso  1.000000 Au
   Au929      1.0     0.568965      0.265517      0.320690     Biso  1.000000 Au
   Au930      1.0     0.596551      0.237930      0.320690     Biso  1.000000 Au
   Au931      1.0     0.596551      0.265517      0.293103     Biso  1.000000 Au
   Au932      1.0     0.624138      0.237930      0.293103     Biso  1.000000 Au
   Au933      1.0     0.624138      0.265517      0.320690     Biso  1.000000 Au
   Au934      1.0     0.651725      0.237930      0.320690     Biso  1.000000 Au
   Au935      1.0     0.651725      0.265517      0.293103     Biso  1.000000 Au
   Au936      1.0     0.679310      0.237930      0.293103     Biso  1.000000 Au
   Au937      1.0     0.679310      0.265517      0.320690     Biso  1.000000 Au
   Au938      1.0     0.706897      0.237930      0.320690     Biso  1.000000 Au
   Au939      1.0     0.706897      0.265517      0.293103     Biso  1.000000 Au
   Au940      1.0     0.734483      0.265517      0.320690     Biso  1.000000 Au
   Au941      1.0     0.210345      0.293103      0.320690     Biso  1.000000 Au
   Au942      1.0     0.210345      0.320690      0.293103     Biso  1.000000 Au
   Au943      1.0     0.237930      0.293103      0.293103     Biso  1.000000 Au
   Au944      1.0     0.237930      0.320690      0.320690     Biso  1.000000 Au
   Au945      1.0     0.265517      0.293103      0.320690     Biso  1.000000 Au
   Au946      1.0     0.265517      0.320690      0.293103     Biso  1.000000 Au
   Au947      1.0     0.293103      0.293103      0.293103     Biso  1.000000 Au
   Au948      1.0     0.293103      0.320690      0.320690     Biso  1.000000 Au
   Au949      1.0     0.320690      0.293103      0.320690     Biso  1.000000 Au
   Au950      1.0     0.320690      0.320690      0.293103     Biso  1.000000 Au
   Au951      1.0     0.348275      0.293103      0.293103     Biso  1.000000 Au
   Au952      1.0     0.348275      0.320690      0.320690     Biso  1.000000 Au
   Au953      1.0     0.375862      0.293103      0.320690     Biso  1.000000 Au
   Au954      1.0     0.375862      0.320690      0.293103     Biso  1.000000 Au
   Au955      1.0     0.403448      0.293103      0.293103     Biso  1.000000 Au
   Au956      1.0     0.403448      0.320690      0.320690     Biso  1.000000 Au
   Au957      1.0     0.431035      0.293103      0.320690     Biso  1.000000 Au
   Au958      1.0     0.431035      0.320690      0.293103     Biso  1.000000 Au
   Au959      1.0     0.458620      0.293103      0.293103     Biso  1.000000 Au
   Au960      1.0     0.458620      0.320690      0.320690     Biso  1.000000 Au
   Au961      1.0     0.486207      0.293103      0.320690     Biso  1.000000 Au
   Au962      1.0     0.486207      0.320690      0.293103     Biso  1.000000 Au
   Au963      1.0     0.513793      0.293103      0.293103     Biso  1.000000 Au
   Au964      1.0     0.513793      0.320690      0.320690     Biso  1.000000 Au
   Au965      1.0     0.541380      0.293103      0.320690     Biso  1.000000 Au
   Au966      1.0     0.541380      0.320690      0.293103     Biso  1.000000 Au
   Au967      1.0     0.568965      0.293103      0.293103     Biso  1.000000 Au
   Au968      1.0     0.568965      0.320690      0.320690     Biso  1.000000 Au
   Au969      1.0     0.596551      0.293103      0.320690     Biso  1.000000 Au
   Au970      1.0     0.596551      0.320690      0.293103     Biso  1.000000 Au
   Au971      1.0     0.624138      0.293103      0.293103     Biso  1.000000 Au
   Au972      1.0     0.624138      0.320690      0.320690     Biso  1.000000 Au
   Au973      1.0     0.651725      0.293103      0.320690     Biso  1.000000 Au
   Au974      1.0     0.651725      0.320690      0.293103     Biso  1.000000 Au
   Au975      1.0     0.679310      0.293103      0.293103     Biso  1.000000 Au
   Au976      1.0     0.679310      0.320690      0.320690     Biso  1.000000 Au
   Au977      1.0     0.706897      0.293103      0.320690     Biso  1.000000 Au
   Au978      1.0     0.706897      0.320690      0.293103     Biso  1.000000 Au
   Au979      1.0     0.734483      0.293103      0.293103     Biso  1.000000 Au
   Au980      1.0     0.734483      0.320690      0.320690     Biso  1.000000 Au
   Au981      1.0     0.762070      0.293103      0.320690     Biso  1.000000 Au
   Au982      1.0     0.762070      0.320690      0.293103     Biso  1.000000 Au
   Au983      1.0     0.789655      0.320690      0.320690     Biso  1.000000 Au
   Au984      1.0     0.182758      0.375862      0.320690     Biso  1.000000 Au
   Au985      1.0     0.210345      0.348275      0.320690     Biso  1.000000 Au
   Au986      1.0     0.210345      0.375862      0.293103     Biso  1.000000 Au
   Au987      1.0     0.237930      0.348275      0.293103     Biso  1.000000 Au
   Au988      1.0     0.237930      0.375862      0.320690     Biso  1.000000 Au
   Au989      1.0     0.265517      0.348275      0.320690     Biso  1.000000 Au
   Au990      1.0     0.265517      0.375862      0.293103     Biso  1.000000 Au
   Au991      1.0     0.293103      0.348275      0.293103     Biso  1.000000 Au
   Au992      1.0     0.293103      0.375862      0.320690     Biso  1.000000 Au
   Au993      1.0     0.320690      0.348275      0.320690     Biso  1.000000 Au
   Au994      1.0     0.320690      0.375862      0.293103     Biso  1.000000 Au
   Au995      1.0     0.348275      0.348275      0.293103     Biso  1.000000 Au
   Au996      1.0     0.348275      0.375862      0.320690     Biso  1.000000 Au
   Au997      1.0     0.375862      0.348275      0.320690     Biso  1.000000 Au
   Au998      1.0     0.375862      0.375862      0.293103     Biso  1.000000 Au
   Au999      1.0     0.403448      0.348275      0.293103     Biso  1.000000 Au
   Au1000     1.0     0.403448      0.375862      0.320690     Biso  1.000000 Au
   Au1001     1.0     0.431035      0.348275      0.320690     Biso  1.000000 Au
   Au1002     1.0     0.431035      0.375862      0.293103     Biso  1.000000 Au
   Au1003     1.0     0.458620      0.348275      0.293103     Biso  1.000000 Au
   Au1004     1.0     0.458620      0.375862      0.320690     Biso  1.000000 Au
   Au1005     1.0     0.486207      0.348275      0.320690     Biso  1.000000 Au
   Au1006     1.0     0.486207      0.375862      0.293103     Biso  1.000000 Au
   Au1007     1.0     0.513793      0.348275      0.293103     Biso  1.000000 Au
   Au1008     1.0     0.513793      0.375862      0.320690     Biso  1.000000 Au
   Au1009     1.0     0.541380      0.348275      0.320690     Biso  1.000000 Au
   Au1010     1.0     0.541380      0.375862      0.293103     Biso  1.000000 Au
   Au1011     1.0     0.568965      0.348275      0.293103     Biso  1.000000 Au
   Au1012     1.0     0.568965      0.375862      0.320690     Biso  1.000000 Au
   Au1013     1.0     0.596551      0.348275      0.320690     Biso  1.000000 Au
   Au1014     1.0     0.596551      0.375862      0.293103     Biso  1.000000 Au
   Au1015     1.0     0.624138      0.348275      0.293103     Biso  1.000000 Au
   Au1016     1.0     0.624138      0.375862      0.320690     Biso  1.000000 Au
   Au1017     1.0     0.651725      0.348275      0.320690     Biso  1.000000 Au
   Au1018     1.0     0.651725      0.375862      0.293103     Biso  1.000000 Au
   Au1019     1.0     0.679310      0.348275      0.293103     Biso  1.000000 Au
   Au1020     1.0     0.679310      0.375862      0.320690     Biso  1.000000 Au
   Au1021     1.0     0.706897      0.348275      0.320690     Biso  1.000000 Au
   Au1022     1.0     0.706897      0.375862      0.293103     Biso  1.000000 Au
   Au1023     1.0     0.734483      0.348275      0.293103     Biso  1.000000 Au
   Au1024     1.0     0.734483      0.375862      0.320690     Biso  1.000000 Au
   Au1025     1.0     0.762070      0.348275      0.320690     Biso  1.000000 Au
   Au1026     1.0     0.762070      0.375862      0.293103     Biso  1.000000 Au
   Au1027     1.0     0.789655      0.348275      0.293103     Biso  1.000000 Au
   Au1028     1.0     0.789655      0.375862      0.320690     Biso  1.000000 Au
   Au1029     1.0     0.817242      0.348275      0.320690     Biso  1.000000 Au
   Au1030     1.0     0.817242      0.375862      0.293103     Biso  1.000000 Au
   Au1031     1.0     0.155171      0.403448      0.320690     Biso  1.000000 Au
   Au1032     1.0     0.182758      0.403448      0.293103     Biso  1.000000 Au
   Au1033     1.0     0.182758      0.431035      0.320690     Biso  1.000000 Au
   Au1034     1.0     0.210345      0.403448      0.320690     Biso  1.000000 Au
   Au1035     1.0     0.210345      0.431035      0.293103     Biso  1.000000 Au
   Au1036     1.0     0.237930      0.403448      0.293103     Biso  1.000000 Au
   Au1037     1.0     0.237930      0.431035      0.320690     Biso  1.000000 Au
   Au1038     1.0     0.265517      0.403448      0.320690     Biso  1.000000 Au
   Au1039     1.0     0.265517      0.431035      0.293103     Biso  1.000000 Au
   Au1040     1.0     0.293103      0.403448      0.293103     Biso  1.000000 Au
   Au1041     1.0     0.293103      0.431035      0.320690     Biso  1.000000 Au
   Au1042     1.0     0.320690      0.403448      0.320690     Biso  1.000000 Au
   Au1043     1.0     0.320690      0.431035      0.293103     Biso  1.000000 Au
   Au1044     1.0     0.348275      0.403448      0.293103     Biso  1.000000 Au
   Au1045     1.0     0.348275      0.431035      0.320690     Biso  1.000000 Au
   Au1046     1.0     0.375862      0.403448      0.320690     Biso  1.000000 Au
   Au1047     1.0     0.375862      0.431035      0.293103     Biso  1.000000 Au
   Au1048     1.0     0.403448      0.403448      0.293103     Biso  1.000000 Au
   Au1049     1.0     0.403448      0.431035      0.320690     Biso  1.000000 Au
   Au1050     1.0     0.431035      0.403448      0.320690     Biso  1.000000 Au
   Au1051     1.0     0.431035      0.431035      0.293103     Biso  1.000000 Au
   Au1052     1.0     0.458620      0.403448      0.293103     Biso  1.000000 Au
   Au1053     1.0     0.458620      0.431035      0.320690     Biso  1.000000 Au
   Au1054     1.0     0.486207      0.403448      0.320690     Biso  1.000000 Au
   Au1055     1.0     0.486207      0.431035      0.293103     Biso  1.000000 Au
   Au1056     1.0     0.513793      0.403448      0.293103     Biso  1.000000 Au
   Au1057     1.0     0.513793      0.431035      0.320690     Biso  1.000000 Au
   Au1058     1.0     0.541380      0.403448      0.320690     Biso  1.000000 Au
   Au1059     1.0     0.541380      0.431035      0.293103     Biso  1.000000 Au
   Au1060     1.0     0.568965      0.403448      0.293103     Biso  1.000000 Au
   Au1061     1.0     0.568965      0.431035      0.320690     Biso  1.000000 Au
   Au1062     1.0     0.596551      0.403448      0.320690     Biso  1.000000 Au
   Au1063     1.0     0.596551      0.431035      0.293103     Biso  1.000000 Au
   Au1064     1.0     0.624138      0.403448      0.293103     Biso  1.000000 Au
   Au1065     1.0     0.624138      0.431035      0.320690     Biso  1.000000 Au
   Au1066     1.0     0.651725      0.403448      0.320690     Biso  1.000000 Au
   Au1067     1.0     0.651725      0.431035      0.293103     Biso  1.000000 Au
   Au1068     1.0     0.679310      0.403448      0.293103     Biso  1.000000 Au
   Au1069     1.0     0.679310      0.431035      0.320690     Biso  1.000000 Au
   Au1070     1.0     0.706897      0.403448      0.320690     Biso  1.000000 Au
   Au1071     1.0     0.706897      0.431035      0.293103     Biso  1.000000 Au
   Au1072     1.0     0.734483      0.403448      0.293103     Biso  1.000000 Au
   Au1073     1.0     0.734483      0.431035      0.320690     Biso  1.000000 Au
   Au1074     1.0     0.762070      0.403448      0.320690     Biso  1.000000 Au
   Au1075     1.0     0.762070      0.431035      0.293103     Biso  1.000000 Au
   Au1076     1.0     0.789655      0.403448      0.293103     Biso  1.000000 Au
   Au1077     1.0     0.789655      0.431035      0.320690     Biso  1.000000 Au
   Au1078     1.0     0.817242      0.403448      0.320690     Biso  1.000000 Au
   Au1079     1.0     0.817242      0.431035      0.293103     Biso  1.000000 Au
   Au1080     1.0     0.844828      0.431035      0.320690     Biso  1.000000 Au
   Au1081     1.0     0.155171      0.458620      0.320690     Biso  1.000000 Au
   Au1082     1.0     0.155171      0.486207      0.293103     Biso  1.000000 Au
   Au1083     1.0     0.182758      0.458620      0.293103     Biso  1.000000 Au
   Au1084     1.0     0.182758      0.486207      0.320690     Biso  1.000000 Au
   Au1085     1.0     0.210345      0.458620      0.320690     Biso  1.000000 Au
   Au1086     1.0     0.210345      0.486207      0.293103     Biso  1.000000 Au
   Au1087     1.0     0.237930      0.458620      0.293103     Biso  1.000000 Au
   Au1088     1.0     0.237930      0.486207      0.320690     Biso  1.000000 Au
   Au1089     1.0     0.265517      0.458620      0.320690     Biso  1.000000 Au
   Au1090     1.0     0.265517      0.486207      0.293103     Biso  1.000000 Au
   Au1091     1.0     0.293103      0.458620      0.293103     Biso  1.000000 Au
   Au1092     1.0     0.293103      0.486207      0.320690     Biso  1.000000 Au
   Au1093     1.0     0.320690      0.458620      0.320690     Biso  1.000000 Au
   Au1094     1.0     0.320690      0.486207      0.293103     Biso  1.000000 Au
   Au1095     1.0     0.348275      0.458620      0.293103     Biso  1.000000 Au
   Au1096     1.0     0.348275      0.486207      0.320690     Biso  1.000000 Au
   Au1097     1.0     0.375862      0.458620      0.320690     Biso  1.000000 Au
   Au1098     1.0     0.375862      0.486207      0.293103     Biso  1.000000 Au
   Au1099     1.0     0.403448      0.458620      0.293103     Biso  1.000000 Au
   Au1100     1.0     0.403448      0.486207      0.320690     Biso  1.000000 Au
   Au1101     1.0     0.431035      0.458620      0.320690     Biso  1.000000 Au
   Au1102     1.0     0.431035      0.486207      0.293103     Biso  1.000000 Au
   Au1103     1.0     0.458620      0.458620      0.293103     Biso  1.000000 Au
   Au1104     1.0     0.458620      0.486207      0.320690     Biso  1.000000 Au
   Au1105     1.0     0.486207      0.458620      0.320690     Biso  1.000000 Au
   Au1106     1.0     0.486207      0.486207      0.293103     Biso  1.000000 Au
   Au1107     1.0     0.513793      0.458620      0.293103     Biso  1.000000 Au
   Au1108     1.0     0.513793      0.486207      0.320690     Biso  1.000000 Au
   Au1109     1.0     0.541380      0.458620      0.320690     Biso  1.000000 Au
   Au1110     1.0     0.541380      0.486207      0.293103     Biso  1.000000 Au
   Au1111     1.0     0.568965      0.458620      0.293103     Biso  1.000000 Au
   Au1112     1.0     0.568965      0.486207      0.320690     Biso  1.000000 Au
   Au1113     1.0     0.596551      0.458620      0.320690     Biso  1.000000 Au
   Au1114     1.0     0.596551      0.486207      0.293103     Biso  1.000000 Au
   Au1115     1.0     0.624138      0.458620      0.293103     Biso  1.000000 Au
   Au1116     1.0     0.624138      0.486207      0.320690     Biso  1.000000 Au
   Au1117     1.0     0.651725      0.458620      0.320690     Biso  1.000000 Au
   Au1118     1.0     0.651725      0.486207      0.293103     Biso  1.000000 Au
   Au1119     1.0     0.679310      0.458620      0.293103     Biso  1.000000 Au
   Au1120     1.0     0.679310      0.486207      0.320690     Biso  1.000000 Au
   Au1121     1.0     0.706897      0.458620      0.320690     Biso  1.000000 Au
   Au1122     1.0     0.706897      0.486207      0.293103     Biso  1.000000 Au
   Au1123     1.0     0.734483      0.458620      0.293103     Biso  1.000000 Au
   Au1124     1.0     0.734483      0.486207      0.320690     Biso  1.000000 Au
   Au1125     1.0     0.762070      0.458620      0.320690     Biso  1.000000 Au
   Au1126     1.0     0.762070      0.486207      0.293103     Biso  1.000000 Au
   Au1127     1.0     0.789655      0.458620      0.293103     Biso  1.000000 Au
   Au1128     1.0     0.789655      0.486207      0.320690     Biso  1.000000 Au
   Au1129     1.0     0.817242      0.458620      0.320690     Biso  1.000000 Au
   Au1130     1.0     0.817242      0.486207      0.293103     Biso  1.000000 Au
   Au1131     1.0     0.844828      0.458620      0.293103     Biso  1.000000 Au
   Au1132     1.0     0.844828      0.486207      0.320690     Biso  1.000000 Au
   Au1133     1.0     0.155171      0.513793      0.320690     Biso  1.000000 Au
   Au1134     1.0     0.155171      0.541380      0.293103     Biso  1.000000 Au
   Au1135     1.0     0.182758      0.513793      0.293103     Biso  1.000000 Au
   Au1136     1.0     0.182758      0.541380      0.320690     Biso  1.000000 Au
   Au1137     1.0     0.210345      0.513793      0.320690     Biso  1.000000 Au
   Au1138     1.0     0.210345      0.541380      0.293103     Biso  1.000000 Au
   Au1139     1.0     0.237930      0.513793      0.293103     Biso  1.000000 Au
   Au1140     1.0     0.237930      0.541380      0.320690     Biso  1.000000 Au
   Au1141     1.0     0.265517      0.513793      0.320690     Biso  1.000000 Au
   Au1142     1.0     0.265517      0.541380      0.293103     Biso  1.000000 Au
   Au1143     1.0     0.293103      0.513793      0.293103     Biso  1.000000 Au
   Au1144     1.0     0.293103      0.541380      0.320690     Biso  1.000000 Au
   Au1145     1.0     0.320690      0.513793      0.320690     Biso  1.000000 Au
   Au1146     1.0     0.320690      0.541380      0.293103     Biso  1.000000 Au
   Au1147     1.0     0.348275      0.513793      0.293103     Biso  1.000000 Au
   Au1148     1.0     0.348275      0.541380      0.320690     Biso  1.000000 Au
   Au1149     1.0     0.375862      0.513793      0.320690     Biso  1.000000 Au
   Au1150     1.0     0.375862      0.541380      0.293103     Biso  1.000000 Au
   Au1151     1.0     0.403448      0.513793      0.293103     Biso  1.000000 Au
   Au1152     1.0     0.403448      0.541380      0.320690     Biso  1.000000 Au
   Au1153     1.0     0.431035      0.513793      0.320690     Biso  1.000000 Au
   Au1154     1.0     0.431035      0.541380      0.293103     Biso  1.000000 Au
   Au1155     1.0     0.458620      0.513793      0.293103     Biso  1.000000 Au
   Au1156     1.0     0.458620      0.541380      0.320690     Biso  1.000000 Au
   Au1157     1.0     0.486207      0.513793      0.320690     Biso  1.000000 Au
   Au1158     1.0     0.486207      0.541380      0.293103     Biso  1.000000 Au
   Au1159     1.0     0.513793      0.513793      0.293103     Biso  1.000000 Au
   Au1160     1.0     0.513793      0.541380      0.320690     Biso  1.000000 Au
   Au1161     1.0     0.541380      0.513793      0.320690     Biso  1.000000 Au
   Au1162     1.0     0.541380      0.541380      0.293103     Biso  1.000000 Au
   Au1163     1.0     0.568965      0.513793      0.293103     Biso  1.000000 Au
   Au1164     1.0     0.568965      0.541380      0.320690     Biso  1.000000 Au
   Au1165     1.0     0.596551      0.513793      0.320690     Biso  1.000000 Au
   Au1166     1.0     0.596551      0.541380      0.293103     Biso  1.000000 Au
   Au1167     1.0     0.624138      0.513793      0.293103     Biso  1.000000 Au
   Au1168     1.0     0.624138      0.541380      0.320690     Biso  1.000000 Au
   Au1169     1.0     0.651725      0.513793      0.320690     Biso  1.000000 Au
   Au1170     1.0     0.651725      0.541380      0.293103     Biso  1.000000 Au
   Au1171     1.0     0.679310      0.513793      0.293103     Biso  1.000000 Au
   Au1172     1.0     0.679310      0.541380      0.320690     Biso  1.000000 Au
   Au1173     1.0     0.706897      0.513793      0.320690     Biso  1.000000 Au
   Au1174     1.0     0.706897      0.541380      0.293103     Biso  1.000000 Au
   Au1175     1.0     0.734483      0.513793      0.293103     Biso  1.000000 Au
   Au1176     1.0     0.734483      0.541380      0.320690     Biso  1.000000 Au
   Au1177     1.0     0.762070      0.513793      0.320690     Biso  1.000000 Au
   Au1178     1.0     0.762070      0.541380      0.293103     Biso  1.000000 Au
   Au1179     1.0     0.789655      0.513793      0.293103     Biso  1.000000 Au
   Au1180     1.0     0.789655      0.541380      0.320690     Biso  1.000000 Au
   Au1181     1.0     0.817242      0.513793      0.320690     Biso  1.000000 Au
   Au1182     1.0     0.817242      0.541380      0.293103     Biso  1.000000 Au
   Au1183     1.0     0.844828      0.513793      0.293103     Biso  1.000000 Au
   Au1184     1.0     0.844828      0.541380      0.320690     Biso  1.000000 Au
   Au1185     1.0     0.155171      0.568965      0.320690     Biso  1.000000 Au
   Au1186     1.0     0.182758      0.568965      0.293103     Biso  1.000000 Au
   Au1187     1.0     0.182758      0.596551      0.320690     Biso  1.000000 Au
   Au1188     1.0     0.210345      0.568965      0.320690     Biso  1.000000 Au
   Au1189     1.0     0.210345      0.596551      0.293103     Biso  1.000000 Au
   Au1190     1.0     0.237930      0.568965      0.293103     Biso  1.000000 Au
   Au1191     1.0     0.237930      0.596551      0.320690     Biso  1.000000 Au
   Au1192     1.0     0.265517      0.568965      0.320690     Biso  1.000000 Au
   Au1193     1.0     0.265517      0.596551      0.293103     Biso  1.000000 Au
   Au1194     1.0     0.293103      0.568965      0.293103     Biso  1.000000 Au
   Au1195     1.0     0.293103      0.596551      0.320690     Biso  1.000000 Au
   Au1196     1.0     0.320690      0.568965      0.320690     Biso  1.000000 Au
   Au1197     1.0     0.320690      0.596551      0.293103     Biso  1.000000 Au
   Au1198     1.0     0.348275      0.568965      0.293103     Biso  1.000000 Au
   Au1199     1.0     0.348275      0.596551      0.320690     Biso  1.000000 Au
   Au1200     1.0     0.375862      0.568965      0.320690     Biso  1.000000 Au
   Au1201     1.0     0.375862      0.596551      0.293103     Biso  1.000000 Au
   Au1202     1.0     0.403448      0.568965      0.293103     Biso  1.000000 Au
   Au1203     1.0     0.403448      0.596551      0.320690     Biso  1.000000 Au
   Au1204     1.0     0.431035      0.568965      0.320690     Biso  1.000000 Au
   Au1205     1.0     0.431035      0.596551      0.293103     Biso  1.000000 Au
   Au1206     1.0     0.458620      0.568965      0.293103     Biso  1.000000 Au
   Au1207     1.0     0.458620      0.596551      0.320690     Biso  1.000000 Au
   Au1208     1.0     0.486207      0.568965      0.320690     Biso  1.000000 Au
   Au1209     1.0     0.486207      0.596551      0.293103     Biso  1.000000 Au
   Au1210     1.0     0.513793      0.568965      0.293103     Biso  1.000000 Au
   Au1211     1.0     0.513793      0.596551      0.320690     Biso  1.000000 Au
   Au1212     1.0     0.541380      0.568965      0.320690     Biso  1.000000 Au
   Au1213     1.0     0.541380      0.596551      0.293103     Biso  1.000000 Au
   Au1214     1.0     0.568965      0.568965      0.293103     Biso  1.000000 Au
   Au1215     1.0     0.568965      0.596551      0.320690     Biso  1.000000 Au
   Au1216     1.0     0.596551      0.568965      0.320690     Biso  1.000000 Au
   Au1217     1.0     0.596551      0.596551      0.293103     Biso  1.000000 Au
   Au1218     1.0     0.624138      0.568965      0.293103     Biso  1.000000 Au
   Au1219     1.0     0.624138      0.596551      0.320690     Biso  1.000000 Au
   Au1220     1.0     0.651725      0.568965      0.320690     Biso  1.000000 Au
   Au1221     1.0     0.651725      0.596551      0.293103     Biso  1.000000 Au
   Au1222     1.0     0.679310      0.568965      0.293103     Biso  1.000000 Au
   Au1223     1.0     0.679310      0.596551      0.320690     Biso  1.000000 Au
   Au1224     1.0     0.706897      0.568965      0.320690     Biso  1.000000 Au
   Au1225     1.0     0.706897      0.596551      0.293103     Biso  1.000000 Au
   Au1226     1.0     0.734483      0.568965      0.293103     Biso  1.000000 Au
   Au1227     1.0     0.734483      0.596551      0.320690     Biso  1.000000 Au
   Au1228     1.0     0.762070      0.568965      0.320690     Biso  1.000000 Au
   Au1229     1.0     0.762070      0.596551      0.293103     Biso  1.000000 Au
   Au1230     1.0     0.789655      0.568965      0.293103     Biso  1.000000 Au
   Au1231     1.0     0.789655      0.596551      0.320690     Biso  1.000000 Au
   Au1232     1.0     0.817242      0.568965      0.320690     Biso  1.000000 Au
   Au1233     1.0     0.817242      0.596551      0.293103     Biso  1.000000 Au
   Au1234     1.0     0.844828      0.596551      0.320690     Biso  1.000000 Au
   Au1235     1.0     0.182758      0.624138      0.293103     Biso  1.000000 Au
   Au1236     1.0     0.182758      0.651725      0.320690     Biso  1.000000 Au
   Au1237     1.0     0.210345      0.624138      0.320690     Biso  1.000000 Au
   Au1238     1.0     0.210345      0.651725      0.293103     Biso  1.000000 Au
   Au1239     1.0     0.237930      0.624138      0.293103     Biso  1.000000 Au
   Au1240     1.0     0.237930      0.651725      0.320690     Biso  1.000000 Au
   Au1241     1.0     0.265517      0.624138      0.320690     Biso  1.000000 Au
   Au1242     1.0     0.265517      0.651725      0.293103     Biso  1.000000 Au
   Au1243     1.0     0.293103      0.624138      0.293103     Biso  1.000000 Au
   Au1244     1.0     0.293103      0.651725      0.320690     Biso  1.000000 Au
   Au1245     1.0     0.320690      0.624138      0.320690     Biso  1.000000 Au
   Au1246     1.0     0.320690      0.651725      0.293103     Biso  1.000000 Au
   Au1247     1.0     0.348275      0.624138      0.293103     Biso  1.000000 Au
   Au1248     1.0     0.348275      0.651725      0.320690     Biso  1.000000 Au
   Au1249     1.0     0.375862      0.624138      0.320690     Biso  1.000000 Au
   Au1250     1.0     0.375862      0.651725      0.293103     Biso  1.000000 Au
   Au1251     1.0     0.403448      0.624138      0.293103     Biso  1.000000 Au
   Au1252     1.0     0.403448      0.651725      0.320690     Biso  1.000000 Au
   Au1253     1.0     0.431035      0.624138      0.320690     Biso  1.000000 Au
   Au1254     1.0     0.431035      0.651725      0.293103     Biso  1.000000 Au
   Au1255     1.0     0.458620      0.624138      0.293103     Biso  1.000000 Au
   Au1256     1.0     0.458620      0.651725      0.320690     Biso  1.000000 Au
   Au1257     1.0     0.486207      0.624138      0.320690     Biso  1.000000 Au
   Au1258     1.0     0.486207      0.651725      0.293103     Biso  1.000000 Au
   Au1259     1.0     0.513793      0.624138      0.293103     Biso  1.000000 Au
   Au1260     1.0     0.513793      0.651725      0.320690     Biso  1.000000 Au
   Au1261     1.0     0.541380      0.624138      0.320690     Biso  1.000000 Au
   Au1262     1.0     0.541380      0.651725      0.293103     Biso  1.000000 Au
   Au1263     1.0     0.568965      0.624138      0.293103     Biso  1.000000 Au
   Au1264     1.0     0.568965      0.651725      0.320690     Biso  1.000000 Au
   Au1265     1.0     0.596551      0.624138      0.320690     Biso  1.000000 Au
   Au1266     1.0     0.596551      0.651725      0.293103     Biso  1.000000 Au
   Au1267     1.0     0.624138      0.624138      0.293103     Biso  1.000000 Au
   Au1268     1.0     0.624138      0.651725      0.320690     Biso  1.000000 Au
   Au1269     1.0     0.651725      0.624138      0.320690     Biso  1.000000 Au
   Au1270     1.0     0.651725      0.651725      0.293103     Biso  1.000000 Au
   Au1271     1.0     0.679310      0.624138      0.293103     Biso  1.000000 Au
   Au1272     1.0     0.679310      0.651725      0.320690     Biso  1.000000 Au
   Au1273     1.0     0.706897      0.624138      0.320690     Biso  1.000000 Au
   Au1274     1.0     0.706897      0.651725      0.293103     Biso  1.000000 Au
   Au1275     1.0     0.734483      0.624138      0.293103     Biso  1.000000 Au
   Au1276     1.0     0.734483      0.651725      0.320690     Biso  1.000000 Au
   Au1277     1.0     0.762070      0.624138      0.320690     Biso  1.000000 Au
   Au1278     1.0     0.762070      0.651725      0.293103     Biso  1.000000 Au
   Au1279     1.0     0.789655      0.624138      0.293103     Biso  1.000000 Au
   Au1280     1.0     0.789655      0.651725      0.320690     Biso  1.000000 Au
   Au1281     1.0     0.817242      0.624138      0.320690     Biso  1.000000 Au
   Au1282     1.0     0.210345      0.679310      0.320690     Biso  1.000000 Au
   Au1283     1.0     0.237930      0.679310      0.293103     Biso  1.000000 Au
   Au1284     1.0     0.237930      0.706897      0.320690     Biso  1.000000 Au
   Au1285     1.0     0.265517      0.679310      0.320690     Biso  1.000000 Au
   Au1286     1.0     0.265517      0.706897      0.293103     Biso  1.000000 Au
   Au1287     1.0     0.293103      0.679310      0.293103     Biso  1.000000 Au
   Au1288     1.0     0.293103      0.706897      0.320690     Biso  1.000000 Au
   Au1289     1.0     0.320690      0.679310      0.320690     Biso  1.000000 Au
   Au1290     1.0     0.320690      0.706897      0.293103     Biso  1.000000 Au
   Au1291     1.0     0.348275      0.679310      0.293103     Biso  1.000000 Au
   Au1292     1.0     0.348275      0.706897      0.320690     Biso  1.000000 Au
   Au1293     1.0     0.375862      0.679310      0.320690     Biso  1.000000 Au
   Au1294     1.0     0.375862      0.706897      0.293103     Biso  1.000000 Au
   Au1295     1.0     0.403448      0.679310      0.293103     Biso  1.000000 Au
   Au1296     1.0     0.403448      0.706897      0.320690     Biso  1.000000 Au
   Au1297     1.0     0.431035      0.679310      0.320690     Biso  1.000000 Au
   Au1298     1.0     0.431035      0.706897      0.293103     Biso  1.000000 Au
   Au1299     1.0     0.458620      0.679310      0.293103     Biso  1.000000 Au
   Au1300     1.0     0.458620      0.706897      0.320690     Biso  1.000000 Au
   Au1301     1.0     0.486207      0.679310      0.320690     Biso  1.000000 Au
   Au1302     1.0     0.486207      0.706897      0.293103     Biso  1.000000 Au
   Au1303     1.0     0.513793      0.679310      0.293103     Biso  1.000000 Au
   Au1304     1.0     0.513793      0.706897      0.320690     Biso  1.000000 Au
   Au1305     1.0     0.541380      0.679310      0.320690     Biso  1.000000 Au
   Au1306     1.0     0.541380      0.706897      0.293103     Biso  1.000000 Au
   Au1307     1.0     0.568965      0.679310      0.293103     Biso  1.000000 Au
   Au1308     1.0     0.568965      0.706897      0.320690     Biso  1.000000 Au
   Au1309     1.0     0.596551      0.679310      0.320690     Biso  1.000000 Au
   Au1310     1.0     0.596551      0.706897      0.293103     Biso  1.000000 Au
   Au1311     1.0     0.624138      0.679310      0.293103     Biso  1.000000 Au
   Au1312     1.0     0.624138      0.706897      0.320690     Biso  1.000000 Au
   Au1313     1.0     0.651725      0.679310      0.320690     Biso  1.000000 Au
   Au1314     1.0     0.651725      0.706897      0.293103     Biso  1.000000 Au
   Au1315     1.0     0.679310      0.679310      0.293103     Biso  1.000000 Au
   Au1316     1.0     0.679310      0.706897      0.320690     Biso  1.000000 Au
   Au1317     1.0     0.706897      0.679310      0.320690     Biso  1.000000 Au
   Au1318     1.0     0.706897      0.706897      0.293103     Biso  1.000000 Au
   Au1319     1.0     0.734483      0.679310      0.293103     Biso  1.000000 Au
   Au1320     1.0     0.734483      0.706897      0.320690     Biso  1.000000 Au
   Au1321     1.0     0.762070      0.679310      0.320690     Biso  1.000000 Au
   Au1322     1.0     0.762070      0.706897      0.293103     Biso  1.000000 Au
   Au1323     1.0     0.789655      0.679310      0.293103     Biso  1.000000 Au
   Au1324     1.0     0.789655      0.706897      0.320690     Biso  1.000000 Au
   Au1325     1.0     0.265517      0.734483      0.320690     Biso  1.000000 Au
   Au1326     1.0     0.293103      0.734483      0.293103     Biso  1.000000 Au
   Au1327     1.0     0.293103      0.762070      0.320690     Biso  1.000000 Au
   Au1328     1.0     0.320690      0.734483      0.320690     Biso  1.000000 Au
   Au1329     1.0     0.320690      0.762070      0.293103     Biso  1.000000 Au
   Au1330     1.0     0.348275      0.734483      0.293103     Biso  1.000000 Au
   Au1331     1.0     0.348275      0.762070      0.320690     Biso  1.000000 Au
   Au1332     1.0     0.375862      0.734483      0.320690     Biso  1.000000 Au
   Au1333     1.0     0.375862      0.762070      0.293103     Biso  1.000000 Au
   Au1334     1.0     0.403448      0.734483      0.293103     Biso  1.000000 Au
   Au1335     1.0     0.403448      0.762070      0.320690     Biso  1.000000 Au
   Au1336     1.0     0.431035      0.734483      0.320690     Biso  1.000000 Au
   Au1337     1.0     0.431035      0.762070      0.293103     Biso  1.000000 Au
   Au1338     1.0     0.458620      0.734483      0.293103     Biso  1.000000 Au
   Au1339     1.0     0.458620      0.762070      0.320690     Biso  1.000000 Au
   Au1340     1.0     0.486207      0.734483      0.320690     Biso  1.000000 Au
   Au1341     1.0     0.486207      0.762070      0.293103     Biso  1.000000 Au
   Au1342     1.0     0.513793      0.734483      0.293103     Biso  1.000000 Au
   Au1343     1.0     0.513793      0.762070      0.320690     Biso  1.000000 Au
   Au1344     1.0     0.541380      0.734483      0.320690     Biso  1.000000 Au
   Au1345     1.0     0.541380      0.762070      0.293103     Biso  1.000000 Au
   Au1346     1.0     0.568965      0.734483      0.293103     Biso  1.000000 Au
   Au1347     1.0     0.568965      0.762070      0.320690     Biso  1.000000 Au
   Au1348     1.0     0.596551      0.734483      0.320690     Biso  1.000000 Au
   Au1349     1.0     0.596551      0.762070      0.293103     Biso  1.000000 Au
   Au1350     1.0     0.624138      0.734483      0.293103     Biso  1.000000 Au
   Au1351     1.0     0.624138      0.762070      0.320690     Biso  1.000000 Au
   Au1352     1.0     0.651725      0.734483      0.320690     Biso  1.000000 Au
   Au1353     1.0     0.651725      0.762070      0.293103     Biso  1.000000 Au
   Au1354     1.0     0.679310      0.734483      0.293103     Biso  1.000000 Au
   Au1355     1.0     0.679310      0.762070      0.320690     Biso  1.000000 Au
   Au1356     1.0     0.706897      0.734483      0.320690     Biso  1.000000 Au
   Au1357     1.0     0.706897      0.762070      0.293103     Biso  1.000000 Au
   Au1358     1.0     0.734483      0.734483      0.293103     Biso  1.000000 Au
   Au1359     1.0     0.734483      0.762070      0.320690     Biso  1.000000 Au
   Au1360     1.0     0.762070      0.734483      0.320690     Biso  1.000000 Au
   Au1361     1.0     0.320690      0.789655      0.320690     Biso  1.000000 Au
   Au1362     1.0     0.348275      0.789655      0.293103     Biso  1.000000 Au
   Au1363     1.0     0.348275      0.817242      0.320690     Biso  1.000000 Au
   Au1364     1.0     0.375862      0.789655      0.320690     Biso  1.000000 Au
   Au1365     1.0     0.375862      0.817242      0.293103     Biso  1.000000 Au
   Au1366     1.0     0.403448      0.789655      0.293103     Biso  1.000000 Au
   Au1367     1.0     0.403448      0.817242      0.320690     Biso  1.000000 Au
   Au1368     1.0     0.431035      0.789655      0.320690     Biso  1.000000 Au
   Au1369     1.0     0.431035      0.817242      0.293103     Biso  1.000000 Au
   Au1370     1.0     0.458620      0.789655      0.293103     Biso  1.000000 Au
   Au1371     1.0     0.458620      0.817242      0.320690     Biso  1.000000 Au
   Au1372     1.0     0.486207      0.789655      0.320690     Biso  1.000000 Au
   Au1373     1.0     0.486207      0.817242      0.293103     Biso  1.000000 Au
   Au1374     1.0     0.513793      0.789655      0.293103     Biso  1.000000 Au
   Au1375     1.0     0.513793      0.817242      0.320690     Biso  1.000000 Au
   Au1376     1.0     0.541380      0.789655      0.320690     Biso  1.000000 Au
   Au1377     1.0     0.541380      0.817242      0.293103     Biso  1.000000 Au
   Au1378     1.0     0.568965      0.789655      0.293103     Biso  1.000000 Au
   Au1379     1.0     0.568965      0.817242      0.320690     Biso  1.000000 Au
   Au1380     1.0     0.596551      0.789655      0.320690     Biso  1.000000 Au
   Au1381     1.0     0.596551      0.817242      0.293103     Biso  1.000000 Au
   Au1382     1.0     0.624138      0.789655      0.293103     Biso  1.000000 Au
   Au1383     1.0     0.624138      0.817242      0.320690     Biso  1.000000 Au
   Au1384     1.0     0.651725      0.789655      0.320690     Biso  1.000000 Au
   Au1385     1.0     0.679310      0.789655      0.293103     Biso  1.000000 Au
   Au1386     1.0     0.706897      0.789655      0.320690     Biso  1.000000 Au
   Au1387     1.0     0.431035      0.844828      0.320690     Biso  1.000000 Au
   Au1388     1.0     0.458620      0.844828      0.293103     Biso  1.000000 Au
   Au1389     1.0     0.486207      0.844828      0.320690     Biso  1.000000 Au
   Au1390     1.0     0.513793      0.844828      0.293103     Biso  1.000000 Au
   Au1391     1.0     0.541380      0.844828      0.320690     Biso  1.000000 Au
   Au1392     1.0     0.596551      0.844828      0.320690     Biso  1.000000 Au
   Au1393     1.0     0.348275      0.155171      0.375862     Biso  1.000000 Au
   Au1394     1.0     0.375862      0.155171      0.348275     Biso  1.000000 Au
   Au1395     1.0     0.403448      0.155171      0.375862     Biso  1.000000 Au
   Au1396     1.0     0.431035      0.127586      0.375862     Biso  1.000000 Au
   Au1397     1.0     0.431035      0.155171      0.348275     Biso  1.000000 Au
   Au1398     1.0     0.458620      0.127586      0.348275     Biso  1.000000 Au
   Au1399     1.0     0.458620      0.155171      0.375862     Biso  1.000000 Au
   Au1400     1.0     0.486207      0.127586      0.375862     Biso  1.000000 Au
   Au1401     1.0     0.486207      0.155171      0.348275     Biso  1.000000 Au
   Au1402     1.0     0.513793      0.127586      0.348275     Biso  1.000000 Au
   Au1403     1.0     0.513793      0.155171      0.375862     Biso  1.000000 Au
   Au1404     1.0     0.541380      0.127586      0.375862     Biso  1.000000 Au
   Au1405     1.0     0.541380      0.155171      0.348275     Biso  1.000000 Au
   Au1406     1.0     0.568965      0.155171      0.375862     Biso  1.000000 Au
   Au1407     1.0     0.596551      0.127586      0.375862     Biso  1.000000 Au
   Au1408     1.0     0.596551      0.155171      0.348275     Biso  1.000000 Au
   Au1409     1.0     0.624138      0.155171      0.375862     Biso  1.000000 Au
   Au1410     1.0     0.265517      0.210345      0.348275     Biso  1.000000 Au
   Au1411     1.0     0.293103      0.210345      0.375862     Biso  1.000000 Au
   Au1412     1.0     0.320690      0.182758      0.375862     Biso  1.000000 Au
   Au1413     1.0     0.320690      0.210345      0.348275     Biso  1.000000 Au
   Au1414     1.0     0.348275      0.182758      0.348275     Biso  1.000000 Au
   Au1415     1.0     0.348275      0.210345      0.375862     Biso  1.000000 Au
   Au1416     1.0     0.375862      0.182758      0.375862     Biso  1.000000 Au
   Au1417     1.0     0.375862      0.210345      0.348275     Biso  1.000000 Au
   Au1418     1.0     0.403448      0.182758      0.348275     Biso  1.000000 Au
   Au1419     1.0     0.403448      0.210345      0.375862     Biso  1.000000 Au
   Au1420     1.0     0.431035      0.182758      0.375862     Biso  1.000000 Au
   Au1421     1.0     0.431035      0.210345      0.348275     Biso  1.000000 Au
   Au1422     1.0     0.458620      0.182758      0.348275     Biso  1.000000 Au
   Au1423     1.0     0.458620      0.210345      0.375862     Biso  1.000000 Au
   Au1424     1.0     0.486207      0.182758      0.375862     Biso  1.000000 Au
   Au1425     1.0     0.486207      0.210345      0.348275     Biso  1.000000 Au
   Au1426     1.0     0.513793      0.182758      0.348275     Biso  1.000000 Au
   Au1427     1.0     0.513793      0.210345      0.375862     Biso  1.000000 Au
   Au1428     1.0     0.541380      0.182758      0.375862     Biso  1.000000 Au
   Au1429     1.0     0.541380      0.210345      0.348275     Biso  1.000000 Au
   Au1430     1.0     0.568965      0.182758      0.348275     Biso  1.000000 Au
   Au1431     1.0     0.568965      0.210345      0.375862     Biso  1.000000 Au
   Au1432     1.0     0.596551      0.182758      0.375862     Biso  1.000000 Au
   Au1433     1.0     0.596551      0.210345      0.348275     Biso  1.000000 Au
   Au1434     1.0     0.624138      0.182758      0.348275     Biso  1.000000 Au
   Au1435     1.0     0.624138      0.210345      0.375862     Biso  1.000000 Au
   Au1436     1.0     0.651725      0.182758      0.375862     Biso  1.000000 Au
   Au1437     1.0     0.651725      0.210345      0.348275     Biso  1.000000 Au
   Au1438     1.0     0.679310      0.182758      0.348275     Biso  1.000000 Au
   Au1439     1.0     0.679310      0.210345      0.375862     Biso  1.000000 Au
   Au1440     1.0     0.706897      0.182758      0.375862     Biso  1.000000 Au
   Au1441     1.0     0.706897      0.210345      0.348275     Biso  1.000000 Au
   Au1442     1.0     0.734483      0.210345      0.375862     Biso  1.000000 Au
   Au1443     1.0     0.210345      0.265517      0.348275     Biso  1.000000 Au
   Au1444     1.0     0.237930      0.237930      0.348275     Biso  1.000000 Au
   Au1445     1.0     0.237930      0.265517      0.375862     Biso  1.000000 Au
   Au1446     1.0     0.265517      0.237930      0.375862     Biso  1.000000 Au
   Au1447     1.0     0.265517      0.265517      0.348275     Biso  1.000000 Au
   Au1448     1.0     0.293103      0.237930      0.348275     Biso  1.000000 Au
   Au1449     1.0     0.293103      0.265517      0.375862     Biso  1.000000 Au
   Au1450     1.0     0.320690      0.237930      0.375862     Biso  1.000000 Au
   Au1451     1.0     0.320690      0.265517      0.348275     Biso  1.000000 Au
   Au1452     1.0     0.348275      0.237930      0.348275     Biso  1.000000 Au
   Au1453     1.0     0.348275      0.265517      0.375862     Biso  1.000000 Au
   Au1454     1.0     0.375862      0.237930      0.375862     Biso  1.000000 Au
   Au1455     1.0     0.375862      0.265517      0.348275     Biso  1.000000 Au
   Au1456     1.0     0.403448      0.237930      0.348275     Biso  1.000000 Au
   Au1457     1.0     0.403448      0.265517      0.375862     Biso  1.000000 Au
   Au1458     1.0     0.431035      0.237930      0.375862     Biso  1.000000 Au
   Au1459     1.0     0.431035      0.265517      0.348275     Biso  1.000000 Au
   Au1460     1.0     0.458620      0.237930      0.348275     Biso  1.000000 Au
   Au1461     1.0     0.458620      0.265517      0.375862     Biso  1.000000 Au
   Au1462     1.0     0.486207      0.237930      0.375862     Biso  1.000000 Au
   Au1463     1.0     0.486207      0.265517      0.348275     Biso  1.000000 Au
   Au1464     1.0     0.513793      0.237930      0.348275     Biso  1.000000 Au
   Au1465     1.0     0.513793      0.265517      0.375862     Biso  1.000000 Au
   Au1466     1.0     0.541380      0.237930      0.375862     Biso  1.000000 Au
   Au1467     1.0     0.541380      0.265517      0.348275     Biso  1.000000 Au
   Au1468     1.0     0.568965      0.237930      0.348275     Biso  1.000000 Au
   Au1469     1.0     0.568965      0.265517      0.375862     Biso  1.000000 Au
   Au1470     1.0     0.596551      0.237930      0.375862     Biso  1.000000 Au
   Au1471     1.0     0.596551      0.265517      0.348275     Biso  1.000000 Au
   Au1472     1.0     0.624138      0.237930      0.348275     Biso  1.000000 Au
   Au1473     1.0     0.624138      0.265517      0.375862     Biso  1.000000 Au
   Au1474     1.0     0.651725      0.237930      0.375862     Biso  1.000000 Au
   Au1475     1.0     0.651725      0.265517      0.348275     Biso  1.000000 Au
   Au1476     1.0     0.679310      0.237930      0.348275     Biso  1.000000 Au
   Au1477     1.0     0.679310      0.265517      0.375862     Biso  1.000000 Au
   Au1478     1.0     0.706897      0.237930      0.375862     Biso  1.000000 Au
   Au1479     1.0     0.706897      0.265517      0.348275     Biso  1.000000 Au
   Au1480     1.0     0.734483      0.237930      0.348275     Biso  1.000000 Au
   Au1481     1.0     0.734483      0.265517      0.375862     Biso  1.000000 Au
   Au1482     1.0     0.762070      0.237930      0.375862     Biso  1.000000 Au
   Au1483     1.0     0.762070      0.265517      0.348275     Biso  1.000000 Au
   Au1484     1.0     0.789655      0.265517      0.375862     Biso  1.000000 Au
   Au1485     1.0     0.182758      0.320690      0.375862     Biso  1.000000 Au
   Au1486     1.0     0.210345      0.293103      0.375862     Biso  1.000000 Au
   Au1487     1.0     0.210345      0.320690      0.348275     Biso  1.000000 Au
   Au1488     1.0     0.237930      0.293103      0.348275     Biso  1.000000 Au
   Au1489     1.0     0.237930      0.320690      0.375862     Biso  1.000000 Au
   Au1490     1.0     0.265517      0.293103      0.375862     Biso  1.000000 Au
   Au1491     1.0     0.265517      0.320690      0.348275     Biso  1.000000 Au
   Au1492     1.0     0.293103      0.293103      0.348275     Biso  1.000000 Au
   Au1493     1.0     0.293103      0.320690      0.375862     Biso  1.000000 Au
   Au1494     1.0     0.320690      0.293103      0.375862     Biso  1.000000 Au
   Au1495     1.0     0.320690      0.320690      0.348275     Biso  1.000000 Au
   Au1496     1.0     0.348275      0.293103      0.348275     Biso  1.000000 Au
   Au1497     1.0     0.348275      0.320690      0.375862     Biso  1.000000 Au
   Au1498     1.0     0.375862      0.293103      0.375862     Biso  1.000000 Au
   Au1499     1.0     0.375862      0.320690      0.348275     Biso  1.000000 Au
   Au1500     1.0     0.403448      0.293103      0.348275     Biso  1.000000 Au
   Au1501     1.0     0.403448      0.320690      0.375862     Biso  1.000000 Au
   Au1502     1.0     0.431035      0.293103      0.375862     Biso  1.000000 Au
   Au1503     1.0     0.431035      0.320690      0.348275     Biso  1.000000 Au
   Au1504     1.0     0.458620      0.293103      0.348275     Biso  1.000000 Au
   Au1505     1.0     0.458620      0.320690      0.375862     Biso  1.000000 Au
   Au1506     1.0     0.486207      0.293103      0.375862     Biso  1.000000 Au
   Au1507     1.0     0.486207      0.320690      0.348275     Biso  1.000000 Au
   Au1508     1.0     0.513793      0.293103      0.348275     Biso  1.000000 Au
   Au1509     1.0     0.513793      0.320690      0.375862     Biso  1.000000 Au
   Au1510     1.0     0.541380      0.293103      0.375862     Biso  1.000000 Au
   Au1511     1.0     0.541380      0.320690      0.348275     Biso  1.000000 Au
   Au1512     1.0     0.568965      0.293103      0.348275     Biso  1.000000 Au
   Au1513     1.0     0.568965      0.320690      0.375862     Biso  1.000000 Au
   Au1514     1.0     0.596551      0.293103      0.375862     Biso  1.000000 Au
   Au1515     1.0     0.596551      0.320690      0.348275     Biso  1.000000 Au
   Au1516     1.0     0.624138      0.293103      0.348275     Biso  1.000000 Au
   Au1517     1.0     0.624138      0.320690      0.375862     Biso  1.000000 Au
   Au1518     1.0     0.651725      0.293103      0.375862     Biso  1.000000 Au
   Au1519     1.0     0.651725      0.320690      0.348275     Biso  1.000000 Au
   Au1520     1.0     0.679310      0.293103      0.348275     Biso  1.000000 Au
   Au1521     1.0     0.679310      0.320690      0.375862     Biso  1.000000 Au
   Au1522     1.0     0.706897      0.293103      0.375862     Biso  1.000000 Au
   Au1523     1.0     0.706897      0.320690      0.348275     Biso  1.000000 Au
   Au1524     1.0     0.734483      0.293103      0.348275     Biso  1.000000 Au
   Au1525     1.0     0.734483      0.320690      0.375862     Biso  1.000000 Au
   Au1526     1.0     0.762070      0.293103      0.375862     Biso  1.000000 Au
   Au1527     1.0     0.762070      0.320690      0.348275     Biso  1.000000 Au
   Au1528     1.0     0.789655      0.293103      0.348275     Biso  1.000000 Au
   Au1529     1.0     0.789655      0.320690      0.375862     Biso  1.000000 Au
   Au1530     1.0     0.817242      0.293103      0.375862     Biso  1.000000 Au
   Au1531     1.0     0.817242      0.320690      0.348275     Biso  1.000000 Au
   Au1532     1.0     0.155171      0.348275      0.375862     Biso  1.000000 Au
   Au1533     1.0     0.155171      0.375862      0.348275     Biso  1.000000 Au
   Au1534     1.0     0.182758      0.348275      0.348275     Biso  1.000000 Au
   Au1535     1.0     0.182758      0.375862      0.375862     Biso  1.000000 Au
   Au1536     1.0     0.210345      0.348275      0.375862     Biso  1.000000 Au
   Au1537     1.0     0.210345      0.375862      0.348275     Biso  1.000000 Au
   Au1538     1.0     0.237930      0.348275      0.348275     Biso  1.000000 Au
   Au1539     1.0     0.237930      0.375862      0.375862     Biso  1.000000 Au
   Au1540     1.0     0.265517      0.348275      0.375862     Biso  1.000000 Au
   Au1541     1.0     0.265517      0.375862      0.348275     Biso  1.000000 Au
   Au1542     1.0     0.293103      0.348275      0.348275     Biso  1.000000 Au
   Au1543     1.0     0.293103      0.375862      0.375862     Biso  1.000000 Au
   Au1544     1.0     0.320690      0.348275      0.375862     Biso  1.000000 Au
   Au1545     1.0     0.320690      0.375862      0.348275     Biso  1.000000 Au
   Au1546     1.0     0.348275      0.348275      0.348275     Biso  1.000000 Au
   Au1547     1.0     0.348275      0.375862      0.375862     Biso  1.000000 Au
   Au1548     1.0     0.375862      0.348275      0.375862     Biso  1.000000 Au
   Au1549     1.0     0.375862      0.375862      0.348275     Biso  1.000000 Au
   Au1550     1.0     0.403448      0.348275      0.348275     Biso  1.000000 Au
   Au1551     1.0     0.403448      0.375862      0.375862     Biso  1.000000 Au
   Au1552     1.0     0.431035      0.348275      0.375862     Biso  1.000000 Au
   Au1553     1.0     0.431035      0.375862      0.348275     Biso  1.000000 Au
   Au1554     1.0     0.458620      0.348275      0.348275     Biso  1.000000 Au
   Au1555     1.0     0.458620      0.375862      0.375862     Biso  1.000000 Au
   Au1556     1.0     0.486207      0.348275      0.375862     Biso  1.000000 Au
   Au1557     1.0     0.486207      0.375862      0.348275     Biso  1.000000 Au
   Au1558     1.0     0.513793      0.348275      0.348275     Biso  1.000000 Au
   Au1559     1.0     0.513793      0.375862      0.375862     Biso  1.000000 Au
   Au1560     1.0     0.541380      0.348275      0.375862     Biso  1.000000 Au
   Au1561     1.0     0.541380      0.375862      0.348275     Biso  1.000000 Au
   Au1562     1.0     0.568965      0.348275      0.348275     Biso  1.000000 Au
   Au1563     1.0     0.568965      0.375862      0.375862     Biso  1.000000 Au
   Au1564     1.0     0.596551      0.348275      0.375862     Biso  1.000000 Au
   Au1565     1.0     0.596551      0.375862      0.348275     Biso  1.000000 Au
   Au1566     1.0     0.624138      0.348275      0.348275     Biso  1.000000 Au
   Au1567     1.0     0.624138      0.375862      0.375862     Biso  1.000000 Au
   Au1568     1.0     0.651725      0.348275      0.375862     Biso  1.000000 Au
   Au1569     1.0     0.651725      0.375862      0.348275     Biso  1.000000 Au
   Au1570     1.0     0.679310      0.348275      0.348275     Biso  1.000000 Au
   Au1571     1.0     0.679310      0.375862      0.375862     Biso  1.000000 Au
   Au1572     1.0     0.706897      0.348275      0.375862     Biso  1.000000 Au
   Au1573     1.0     0.706897      0.375862      0.348275     Biso  1.000000 Au
   Au1574     1.0     0.734483      0.348275      0.348275     Biso  1.000000 Au
   Au1575     1.0     0.734483      0.375862      0.375862     Biso  1.000000 Au
   Au1576     1.0     0.762070      0.348275      0.375862     Biso  1.000000 Au
   Au1577     1.0     0.762070      0.375862      0.348275     Biso  1.000000 Au
   Au1578     1.0     0.789655      0.348275      0.348275     Biso  1.000000 Au
   Au1579     1.0     0.789655      0.375862      0.375862     Biso  1.000000 Au
   Au1580     1.0     0.817242      0.348275      0.375862     Biso  1.000000 Au
   Au1581     1.0     0.817242      0.375862      0.348275     Biso  1.000000 Au
   Au1582     1.0     0.844828      0.375862      0.375862     Biso  1.000000 Au
   Au1583     1.0     0.127586      0.431035      0.375862     Biso  1.000000 Au
   Au1584     1.0     0.155171      0.403448      0.375862     Biso  1.000000 Au
   Au1585     1.0     0.155171      0.431035      0.348275     Biso  1.000000 Au
   Au1586     1.0     0.182758      0.403448      0.348275     Biso  1.000000 Au
   Au1587     1.0     0.182758      0.431035      0.375862     Biso  1.000000 Au
   Au1588     1.0     0.210345      0.403448      0.375862     Biso  1.000000 Au
   Au1589     1.0     0.210345      0.431035      0.348275     Biso  1.000000 Au
   Au1590     1.0     0.237930      0.403448      0.348275     Biso  1.000000 Au
   Au1591     1.0     0.237930      0.431035      0.375862     Biso  1.000000 Au
   Au1592     1.0     0.265517      0.403448      0.375862     Biso  1.000000 Au
   Au1593     1.0     0.265517      0.431035      0.348275     Biso  1.000000 Au
   Au1594     1.0     0.293103      0.403448      0.348275     Biso  1.000000 Au
   Au1595     1.0     0.293103      0.431035      0.375862     Biso  1.000000 Au
   Au1596     1.0     0.320690      0.403448      0.375862     Biso  1.000000 Au
   Au1597     1.0     0.320690      0.431035      0.348275     Biso  1.000000 Au
   Au1598     1.0     0.348275      0.403448      0.348275     Biso  1.000000 Au
   Au1599     1.0     0.348275      0.431035      0.375862     Biso  1.000000 Au
   Au1600     1.0     0.375862      0.403448      0.375862     Biso  1.000000 Au
   Au1601     1.0     0.375862      0.431035      0.348275     Biso  1.000000 Au
   Au1602     1.0     0.403448      0.403448      0.348275     Biso  1.000000 Au
   Au1603     1.0     0.403448      0.431035      0.375862     Biso  1.000000 Au
   Au1604     1.0     0.431035      0.403448      0.375862     Biso  1.000000 Au
   Au1605     1.0     0.431035      0.431035      0.348275     Biso  1.000000 Au
   Au1606     1.0     0.458620      0.403448      0.348275     Biso  1.000000 Au
   Au1607     1.0     0.458620      0.431035      0.375862     Biso  1.000000 Au
   Au1608     1.0     0.486207      0.403448      0.375862     Biso  1.000000 Au
   Au1609     1.0     0.486207      0.431035      0.348275     Biso  1.000000 Au
   Au1610     1.0     0.513793      0.403448      0.348275     Biso  1.000000 Au
   Au1611     1.0     0.513793      0.431035      0.375862     Biso  1.000000 Au
   Au1612     1.0     0.541380      0.403448      0.375862     Biso  1.000000 Au
   Au1613     1.0     0.541380      0.431035      0.348275     Biso  1.000000 Au
   Au1614     1.0     0.568965      0.403448      0.348275     Biso  1.000000 Au
   Au1615     1.0     0.568965      0.431035      0.375862     Biso  1.000000 Au
   Au1616     1.0     0.596551      0.403448      0.375862     Biso  1.000000 Au
   Au1617     1.0     0.596551      0.431035      0.348275     Biso  1.000000 Au
   Au1618     1.0     0.624138      0.403448      0.348275     Biso  1.000000 Au
   Au1619     1.0     0.624138      0.431035      0.375862     Biso  1.000000 Au
   Au1620     1.0     0.651725      0.403448      0.375862     Biso  1.000000 Au
   Au1621     1.0     0.651725      0.431035      0.348275     Biso  1.000000 Au
   Au1622     1.0     0.679310      0.403448      0.348275     Biso  1.000000 Au
   Au1623     1.0     0.679310      0.431035      0.375862     Biso  1.000000 Au
   Au1624     1.0     0.706897      0.403448      0.375862     Biso  1.000000 Au
   Au1625     1.0     0.706897      0.431035      0.348275     Biso  1.000000 Au
   Au1626     1.0     0.734483      0.403448      0.348275     Biso  1.000000 Au
   Au1627     1.0     0.734483      0.431035      0.375862     Biso  1.000000 Au
   Au1628     1.0     0.762070      0.403448      0.375862     Biso  1.000000 Au
   Au1629     1.0     0.762070      0.431035      0.348275     Biso  1.000000 Au
   Au1630     1.0     0.789655      0.403448      0.348275     Biso  1.000000 Au
   Au1631     1.0     0.789655      0.431035      0.375862     Biso  1.000000 Au
   Au1632     1.0     0.817242      0.403448      0.375862     Biso  1.000000 Au
   Au1633     1.0     0.817242      0.431035      0.348275     Biso  1.000000 Au
   Au1634     1.0     0.844828      0.403448      0.348275     Biso  1.000000 Au
   Au1635     1.0     0.844828      0.431035      0.375862     Biso  1.000000 Au
   Au1636     1.0     0.872413      0.403448      0.375862     Biso  1.000000 Au
   Au1637     1.0     0.127586      0.458620      0.348275     Biso  1.000000 Au
   Au1638     1.0     0.127586      0.486207      0.375862     Biso  1.000000 Au
   Au1639     1.0     0.155171      0.458620      0.375862     Biso  1.000000 Au
   Au1640     1.0     0.155171      0.486207      0.348275     Biso  1.000000 Au
   Au1641     1.0     0.182758      0.458620      0.348275     Biso  1.000000 Au
   Au1642     1.0     0.182758      0.486207      0.375862     Biso  1.000000 Au
   Au1643     1.0     0.210345      0.458620      0.375862     Biso  1.000000 Au
   Au1644     1.0     0.210345      0.486207      0.348275     Biso  1.000000 Au
   Au1645     1.0     0.237930      0.458620      0.348275     Biso  1.000000 Au
   Au1646     1.0     0.237930      0.486207      0.375862     Biso  1.000000 Au
   Au1647     1.0     0.265517      0.458620      0.375862     Biso  1.000000 Au
   Au1648     1.0     0.265517      0.486207      0.348275     Biso  1.000000 Au
   Au1649     1.0     0.293103      0.458620      0.348275     Biso  1.000000 Au
   Au1650     1.0     0.293103      0.486207      0.375862     Biso  1.000000 Au
   Au1651     1.0     0.320690      0.458620      0.375862     Biso  1.000000 Au
   Au1652     1.0     0.320690      0.486207      0.348275     Biso  1.000000 Au
   Au1653     1.0     0.348275      0.458620      0.348275     Biso  1.000000 Au
   Au1654     1.0     0.348275      0.486207      0.375862     Biso  1.000000 Au
   Au1655     1.0     0.375862      0.458620      0.375862     Biso  1.000000 Au
   Au1656     1.0     0.375862      0.486207      0.348275     Biso  1.000000 Au
   Au1657     1.0     0.403448      0.458620      0.348275     Biso  1.000000 Au
   Au1658     1.0     0.403448      0.486207      0.375862     Biso  1.000000 Au
   Au1659     1.0     0.431035      0.458620      0.375862     Biso  1.000000 Au
   Au1660     1.0     0.431035      0.486207      0.348275     Biso  1.000000 Au
   Au1661     1.0     0.458620      0.458620      0.348275     Biso  1.000000 Au
   Au1662     1.0     0.458620      0.486207      0.375862     Biso  1.000000 Au
   Au1663     1.0     0.486207      0.458620      0.375862     Biso  1.000000 Au
   Au1664     1.0     0.486207      0.486207      0.348275     Biso  1.000000 Au
   Au1665     1.0     0.513793      0.458620      0.348275     Biso  1.000000 Au
   Au1666     1.0     0.513793      0.486207      0.375862     Biso  1.000000 Au
   Au1667     1.0     0.541380      0.458620      0.375862     Biso  1.000000 Au
   Au1668     1.0     0.541380      0.486207      0.348275     Biso  1.000000 Au
   Au1669     1.0     0.568965      0.458620      0.348275     Biso  1.000000 Au
   Au1670     1.0     0.568965      0.486207      0.375862     Biso  1.000000 Au
   Au1671     1.0     0.596551      0.458620      0.375862     Biso  1.000000 Au
   Au1672     1.0     0.596551      0.486207      0.348275     Biso  1.000000 Au
   Au1673     1.0     0.624138      0.458620      0.348275     Biso  1.000000 Au
   Au1674     1.0     0.624138      0.486207      0.375862     Biso  1.000000 Au
   Au1675     1.0     0.651725      0.458620      0.375862     Biso  1.000000 Au
   Au1676     1.0     0.651725      0.486207      0.348275     Biso  1.000000 Au
   Au1677     1.0     0.679310      0.458620      0.348275     Biso  1.000000 Au
   Au1678     1.0     0.679310      0.486207      0.375862     Biso  1.000000 Au
   Au1679     1.0     0.706897      0.458620      0.375862     Biso  1.000000 Au
   Au1680     1.0     0.706897      0.486207      0.348275     Biso  1.000000 Au
   Au1681     1.0     0.734483      0.458620      0.348275     Biso  1.000000 Au
   Au1682     1.0     0.734483      0.486207      0.375862     Biso  1.000000 Au
   Au1683     1.0     0.762070      0.458620      0.375862     Biso  1.000000 Au
   Au1684     1.0     0.762070      0.486207      0.348275     Biso  1.000000 Au
   Au1685     1.0     0.789655      0.458620      0.348275     Biso  1.000000 Au
   Au1686     1.0     0.789655      0.486207      0.375862     Biso  1.000000 Au
   Au1687     1.0     0.817242      0.458620      0.375862     Biso  1.000000 Au
   Au1688     1.0     0.817242      0.486207      0.348275     Biso  1.000000 Au
   Au1689     1.0     0.844828      0.458620      0.348275     Biso  1.000000 Au
   Au1690     1.0     0.844828      0.486207      0.375862     Biso  1.000000 Au
   Au1691     1.0     0.872413      0.458620      0.375862     Biso  1.000000 Au
   Au1692     1.0     0.872413      0.486207      0.348275     Biso  1.000000 Au
   Au1693     1.0     0.127586      0.513793      0.348275     Biso  1.000000 Au
   Au1694     1.0     0.127586      0.541380      0.375862     Biso  1.000000 Au
   Au1695     1.0     0.155171      0.513793      0.375862     Biso  1.000000 Au
   Au1696     1.0     0.155171      0.541380      0.348275     Biso  1.000000 Au
   Au1697     1.0     0.182758      0.513793      0.348275     Biso  1.000000 Au
   Au1698     1.0     0.182758      0.541380      0.375862     Biso  1.000000 Au
   Au1699     1.0     0.210345      0.513793      0.375862     Biso  1.000000 Au
   Au1700     1.0     0.210345      0.541380      0.348275     Biso  1.000000 Au
   Au1701     1.0     0.237930      0.513793      0.348275     Biso  1.000000 Au
   Au1702     1.0     0.237930      0.541380      0.375862     Biso  1.000000 Au
   Au1703     1.0     0.265517      0.513793      0.375862     Biso  1.000000 Au
   Au1704     1.0     0.265517      0.541380      0.348275     Biso  1.000000 Au
   Au1705     1.0     0.293103      0.513793      0.348275     Biso  1.000000 Au
   Au1706     1.0     0.293103      0.541380      0.375862     Biso  1.000000 Au
   Au1707     1.0     0.320690      0.513793      0.375862     Biso  1.000000 Au
   Au1708     1.0     0.320690      0.541380      0.348275     Biso  1.000000 Au
   Au1709     1.0     0.348275      0.513793      0.348275     Biso  1.000000 Au
   Au1710     1.0     0.348275      0.541380      0.375862     Biso  1.000000 Au
   Au1711     1.0     0.375862      0.513793      0.375862     Biso  1.000000 Au
   Au1712     1.0     0.375862      0.541380      0.348275     Biso  1.000000 Au
   Au1713     1.0     0.403448      0.513793      0.348275     Biso  1.000000 Au
   Au1714     1.0     0.403448      0.541380      0.375862     Biso  1.000000 Au
   Au1715     1.0     0.431035      0.513793      0.375862     Biso  1.000000 Au
   Au1716     1.0     0.431035      0.541380      0.348275     Biso  1.000000 Au
   Au1717     1.0     0.458620      0.513793      0.348275     Biso  1.000000 Au
   Au1718     1.0     0.458620      0.541380      0.375862     Biso  1.000000 Au
   Au1719     1.0     0.486207      0.513793      0.375862     Biso  1.000000 Au
   Au1720     1.0     0.486207      0.541380      0.348275     Biso  1.000000 Au
   Au1721     1.0     0.513793      0.513793      0.348275     Biso  1.000000 Au
   Au1722     1.0     0.513793      0.541380      0.375862     Biso  1.000000 Au
   Au1723     1.0     0.541380      0.513793      0.375862     Biso  1.000000 Au
   Au1724     1.0     0.541380      0.541380      0.348275     Biso  1.000000 Au
   Au1725     1.0     0.568965      0.513793      0.348275     Biso  1.000000 Au
   Au1726     1.0     0.568965      0.541380      0.375862     Biso  1.000000 Au
   Au1727     1.0     0.596551      0.513793      0.375862     Biso  1.000000 Au
   Au1728     1.0     0.596551      0.541380      0.348275     Biso  1.000000 Au
   Au1729     1.0     0.624138      0.513793      0.348275     Biso  1.000000 Au
   Au1730     1.0     0.624138      0.541380      0.375862     Biso  1.000000 Au
   Au1731     1.0     0.651725      0.513793      0.375862     Biso  1.000000 Au
   Au1732     1.0     0.651725      0.541380      0.348275     Biso  1.000000 Au
   Au1733     1.0     0.679310      0.513793      0.348275     Biso  1.000000 Au
   Au1734     1.0     0.679310      0.541380      0.375862     Biso  1.000000 Au
   Au1735     1.0     0.706897      0.513793      0.375862     Biso  1.000000 Au
   Au1736     1.0     0.706897      0.541380      0.348275     Biso  1.000000 Au
   Au1737     1.0     0.734483      0.513793      0.348275     Biso  1.000000 Au
   Au1738     1.0     0.734483      0.541380      0.375862     Biso  1.000000 Au
   Au1739     1.0     0.762070      0.513793      0.375862     Biso  1.000000 Au
   Au1740     1.0     0.762070      0.541380      0.348275     Biso  1.000000 Au
   Au1741     1.0     0.789655      0.513793      0.348275     Biso  1.000000 Au
   Au1742     1.0     0.789655      0.541380      0.375862     Biso  1.000000 Au
   Au1743     1.0     0.817242      0.513793      0.375862     Biso  1.000000 Au
   Au1744     1.0     0.817242      0.541380      0.348275     Biso  1.000000 Au
   Au1745     1.0     0.844828      0.513793      0.348275     Biso  1.000000 Au
   Au1746     1.0     0.844828      0.541380      0.375862     Biso  1.000000 Au
   Au1747     1.0     0.872413      0.513793      0.375862     Biso  1.000000 Au
   Au1748     1.0     0.872413      0.541380      0.348275     Biso  1.000000 Au
   Au1749     1.0     0.127586      0.596551      0.375862     Biso  1.000000 Au
   Au1750     1.0     0.155171      0.568965      0.375862     Biso  1.000000 Au
   Au1751     1.0     0.155171      0.596551      0.348275     Biso  1.000000 Au
   Au1752     1.0     0.182758      0.568965      0.348275     Biso  1.000000 Au
   Au1753     1.0     0.182758      0.596551      0.375862     Biso  1.000000 Au
   Au1754     1.0     0.210345      0.568965      0.375862     Biso  1.000000 Au
   Au1755     1.0     0.210345      0.596551      0.348275     Biso  1.000000 Au
   Au1756     1.0     0.237930      0.568965      0.348275     Biso  1.000000 Au
   Au1757     1.0     0.237930      0.596551      0.375862     Biso  1.000000 Au
   Au1758     1.0     0.265517      0.568965      0.375862     Biso  1.000000 Au
   Au1759     1.0     0.265517      0.596551      0.348275     Biso  1.000000 Au
   Au1760     1.0     0.293103      0.568965      0.348275     Biso  1.000000 Au
   Au1761     1.0     0.293103      0.596551      0.375862     Biso  1.000000 Au
   Au1762     1.0     0.320690      0.568965      0.375862     Biso  1.000000 Au
   Au1763     1.0     0.320690      0.596551      0.348275     Biso  1.000000 Au
   Au1764     1.0     0.348275      0.568965      0.348275     Biso  1.000000 Au
   Au1765     1.0     0.348275      0.596551      0.375862     Biso  1.000000 Au
   Au1766     1.0     0.375862      0.568965      0.375862     Biso  1.000000 Au
   Au1767     1.0     0.375862      0.596551      0.348275     Biso  1.000000 Au
   Au1768     1.0     0.403448      0.568965      0.348275     Biso  1.000000 Au
   Au1769     1.0     0.403448      0.596551      0.375862     Biso  1.000000 Au
   Au1770     1.0     0.431035      0.568965      0.375862     Biso  1.000000 Au
   Au1771     1.0     0.431035      0.596551      0.348275     Biso  1.000000 Au
   Au1772     1.0     0.458620      0.568965      0.348275     Biso  1.000000 Au
   Au1773     1.0     0.458620      0.596551      0.375862     Biso  1.000000 Au
   Au1774     1.0     0.486207      0.568965      0.375862     Biso  1.000000 Au
   Au1775     1.0     0.486207      0.596551      0.348275     Biso  1.000000 Au
   Au1776     1.0     0.513793      0.568965      0.348275     Biso  1.000000 Au
   Au1777     1.0     0.513793      0.596551      0.375862     Biso  1.000000 Au
   Au1778     1.0     0.541380      0.568965      0.375862     Biso  1.000000 Au
   Au1779     1.0     0.541380      0.596551      0.348275     Biso  1.000000 Au
   Au1780     1.0     0.568965      0.568965      0.348275     Biso  1.000000 Au
   Au1781     1.0     0.568965      0.596551      0.375862     Biso  1.000000 Au
   Au1782     1.0     0.596551      0.568965      0.375862     Biso  1.000000 Au
   Au1783     1.0     0.596551      0.596551      0.348275     Biso  1.000000 Au
   Au1784     1.0     0.624138      0.568965      0.348275     Biso  1.000000 Au
   Au1785     1.0     0.624138      0.596551      0.375862     Biso  1.000000 Au
   Au1786     1.0     0.651725      0.568965      0.375862     Biso  1.000000 Au
   Au1787     1.0     0.651725      0.596551      0.348275     Biso  1.000000 Au
   Au1788     1.0     0.679310      0.568965      0.348275     Biso  1.000000 Au
   Au1789     1.0     0.679310      0.596551      0.375862     Biso  1.000000 Au
   Au1790     1.0     0.706897      0.568965      0.375862     Biso  1.000000 Au
   Au1791     1.0     0.706897      0.596551      0.348275     Biso  1.000000 Au
   Au1792     1.0     0.734483      0.568965      0.348275     Biso  1.000000 Au
   Au1793     1.0     0.734483      0.596551      0.375862     Biso  1.000000 Au
   Au1794     1.0     0.762070      0.568965      0.375862     Biso  1.000000 Au
   Au1795     1.0     0.762070      0.596551      0.348275     Biso  1.000000 Au
   Au1796     1.0     0.789655      0.568965      0.348275     Biso  1.000000 Au
   Au1797     1.0     0.789655      0.596551      0.375862     Biso  1.000000 Au
   Au1798     1.0     0.817242      0.568965      0.375862     Biso  1.000000 Au
   Au1799     1.0     0.817242      0.596551      0.348275     Biso  1.000000 Au
   Au1800     1.0     0.844828      0.568965      0.348275     Biso  1.000000 Au
   Au1801     1.0     0.844828      0.596551      0.375862     Biso  1.000000 Au
   Au1802     1.0     0.872413      0.568965      0.375862     Biso  1.000000 Au
   Au1803     1.0     0.155171      0.624138      0.375862     Biso  1.000000 Au
   Au1804     1.0     0.182758      0.624138      0.348275     Biso  1.000000 Au
   Au1805     1.0     0.182758      0.651725      0.375862     Biso  1.000000 Au
   Au1806     1.0     0.210345      0.624138      0.375862     Biso  1.000000 Au
   Au1807     1.0     0.210345      0.651725      0.348275     Biso  1.000000 Au
   Au1808     1.0     0.237930      0.624138      0.348275     Biso  1.000000 Au
   Au1809     1.0     0.237930      0.651725      0.375862     Biso  1.000000 Au
   Au1810     1.0     0.265517      0.624138      0.375862     Biso  1.000000 Au
   Au1811     1.0     0.265517      0.651725      0.348275     Biso  1.000000 Au
   Au1812     1.0     0.293103      0.624138      0.348275     Biso  1.000000 Au
   Au1813     1.0     0.293103      0.651725      0.375862     Biso  1.000000 Au
   Au1814     1.0     0.320690      0.624138      0.375862     Biso  1.000000 Au
   Au1815     1.0     0.320690      0.651725      0.348275     Biso  1.000000 Au
   Au1816     1.0     0.348275      0.624138      0.348275     Biso  1.000000 Au
   Au1817     1.0     0.348275      0.651725      0.375862     Biso  1.000000 Au
   Au1818     1.0     0.375862      0.624138      0.375862     Biso  1.000000 Au
   Au1819     1.0     0.375862      0.651725      0.348275     Biso  1.000000 Au
   Au1820     1.0     0.403448      0.624138      0.348275     Biso  1.000000 Au
   Au1821     1.0     0.403448      0.651725      0.375862     Biso  1.000000 Au
   Au1822     1.0     0.431035      0.624138      0.375862     Biso  1.000000 Au
   Au1823     1.0     0.431035      0.651725      0.348275     Biso  1.000000 Au
   Au1824     1.0     0.458620      0.624138      0.348275     Biso  1.000000 Au
   Au1825     1.0     0.458620      0.651725      0.375862     Biso  1.000000 Au
   Au1826     1.0     0.486207      0.624138      0.375862     Biso  1.000000 Au
   Au1827     1.0     0.486207      0.651725      0.348275     Biso  1.000000 Au
   Au1828     1.0     0.513793      0.624138      0.348275     Biso  1.000000 Au
   Au1829     1.0     0.513793      0.651725      0.375862     Biso  1.000000 Au
   Au1830     1.0     0.541380      0.624138      0.375862     Biso  1.000000 Au
   Au1831     1.0     0.541380      0.651725      0.348275     Biso  1.000000 Au
   Au1832     1.0     0.568965      0.624138      0.348275     Biso  1.000000 Au
   Au1833     1.0     0.568965      0.651725      0.375862     Biso  1.000000 Au
   Au1834     1.0     0.596551      0.624138      0.375862     Biso  1.000000 Au
   Au1835     1.0     0.596551      0.651725      0.348275     Biso  1.000000 Au
   Au1836     1.0     0.624138      0.624138      0.348275     Biso  1.000000 Au
   Au1837     1.0     0.624138      0.651725      0.375862     Biso  1.000000 Au
   Au1838     1.0     0.651725      0.624138      0.375862     Biso  1.000000 Au
   Au1839     1.0     0.651725      0.651725      0.348275     Biso  1.000000 Au
   Au1840     1.0     0.679310      0.624138      0.348275     Biso  1.000000 Au
   Au1841     1.0     0.679310      0.651725      0.375862     Biso  1.000000 Au
   Au1842     1.0     0.706897      0.624138      0.375862     Biso  1.000000 Au
   Au1843     1.0     0.706897      0.651725      0.348275     Biso  1.000000 Au
   Au1844     1.0     0.734483      0.624138      0.348275     Biso  1.000000 Au
   Au1845     1.0     0.734483      0.651725      0.375862     Biso  1.000000 Au
   Au1846     1.0     0.762070      0.624138      0.375862     Biso  1.000000 Au
   Au1847     1.0     0.762070      0.651725      0.348275     Biso  1.000000 Au
   Au1848     1.0     0.789655      0.624138      0.348275     Biso  1.000000 Au
   Au1849     1.0     0.789655      0.651725      0.375862     Biso  1.000000 Au
   Au1850     1.0     0.817242      0.624138      0.375862     Biso  1.000000 Au
   Au1851     1.0     0.817242      0.651725      0.348275     Biso  1.000000 Au
   Au1852     1.0     0.844828      0.624138      0.348275     Biso  1.000000 Au
   Au1853     1.0     0.844828      0.651725      0.375862     Biso  1.000000 Au
   Au1854     1.0     0.182758      0.679310      0.348275     Biso  1.000000 Au
   Au1855     1.0     0.182758      0.706897      0.375862     Biso  1.000000 Au
   Au1856     1.0     0.210345      0.679310      0.375862     Biso  1.000000 Au
   Au1857     1.0     0.210345      0.706897      0.348275     Biso  1.000000 Au
   Au1858     1.0     0.237930      0.679310      0.348275     Biso  1.000000 Au
   Au1859     1.0     0.237930      0.706897      0.375862     Biso  1.000000 Au
   Au1860     1.0     0.265517      0.679310      0.375862     Biso  1.000000 Au
   Au1861     1.0     0.265517      0.706897      0.348275     Biso  1.000000 Au
   Au1862     1.0     0.293103      0.679310      0.348275     Biso  1.000000 Au
   Au1863     1.0     0.293103      0.706897      0.375862     Biso  1.000000 Au
   Au1864     1.0     0.320690      0.679310      0.375862     Biso  1.000000 Au
   Au1865     1.0     0.320690      0.706897      0.348275     Biso  1.000000 Au
   Au1866     1.0     0.348275      0.679310      0.348275     Biso  1.000000 Au
   Au1867     1.0     0.348275      0.706897      0.375862     Biso  1.000000 Au
   Au1868     1.0     0.375862      0.679310      0.375862     Biso  1.000000 Au
   Au1869     1.0     0.375862      0.706897      0.348275     Biso  1.000000 Au
   Au1870     1.0     0.403448      0.679310      0.348275     Biso  1.000000 Au
   Au1871     1.0     0.403448      0.706897      0.375862     Biso  1.000000 Au
   Au1872     1.0     0.431035      0.679310      0.375862     Biso  1.000000 Au
   Au1873     1.0     0.431035      0.706897      0.348275     Biso  1.000000 Au
   Au1874     1.0     0.458620      0.679310      0.348275     Biso  1.000000 Au
   Au1875     1.0     0.458620      0.706897      0.375862     Biso  1.000000 Au
   Au1876     1.0     0.486207      0.679310      0.375862     Biso  1.000000 Au
   Au1877     1.0     0.486207      0.706897      0.348275     Biso  1.000000 Au
   Au1878     1.0     0.513793      0.679310      0.348275     Biso  1.000000 Au
   Au1879     1.0     0.513793      0.706897      0.375862     Biso  1.000000 Au
   Au1880     1.0     0.541380      0.679310      0.375862     Biso  1.000000 Au
   Au1881     1.0     0.541380      0.706897      0.348275     Biso  1.000000 Au
   Au1882     1.0     0.568965      0.679310      0.348275     Biso  1.000000 Au
   Au1883     1.0     0.568965      0.706897      0.375862     Biso  1.000000 Au
   Au1884     1.0     0.596551      0.679310      0.375862     Biso  1.000000 Au
   Au1885     1.0     0.596551      0.706897      0.348275     Biso  1.000000 Au
   Au1886     1.0     0.624138      0.679310      0.348275     Biso  1.000000 Au
   Au1887     1.0     0.624138      0.706897      0.375862     Biso  1.000000 Au
   Au1888     1.0     0.651725      0.679310      0.375862     Biso  1.000000 Au
   Au1889     1.0     0.651725      0.706897      0.348275     Biso  1.000000 Au
   Au1890     1.0     0.679310      0.679310      0.348275     Biso  1.000000 Au
   Au1891     1.0     0.679310      0.706897      0.375862     Biso  1.000000 Au
   Au1892     1.0     0.706897      0.679310      0.375862     Biso  1.000000 Au
   Au1893     1.0     0.706897      0.706897      0.348275     Biso  1.000000 Au
   Au1894     1.0     0.734483      0.679310      0.348275     Biso  1.000000 Au
   Au1895     1.0     0.734483      0.706897      0.375862     Biso  1.000000 Au
   Au1896     1.0     0.762070      0.679310      0.375862     Biso  1.000000 Au
   Au1897     1.0     0.762070      0.706897      0.348275     Biso  1.000000 Au
   Au1898     1.0     0.789655      0.679310      0.348275     Biso  1.000000 Au
   Au1899     1.0     0.789655      0.706897      0.375862     Biso  1.000000 Au
   Au1900     1.0     0.817242      0.679310      0.375862     Biso  1.000000 Au
   Au1901     1.0     0.210345      0.734483      0.375862     Biso  1.000000 Au
   Au1902     1.0     0.237930      0.734483      0.348275     Biso  1.000000 Au
   Au1903     1.0     0.237930      0.762070      0.375862     Biso  1.000000 Au
   Au1904     1.0     0.265517      0.734483      0.375862     Biso  1.000000 Au
   Au1905     1.0     0.265517      0.762070      0.348275     Biso  1.000000 Au
   Au1906     1.0     0.293103      0.734483      0.348275     Biso  1.000000 Au
   Au1907     1.0     0.293103      0.762070      0.375862     Biso  1.000000 Au
   Au1908     1.0     0.320690      0.734483      0.375862     Biso  1.000000 Au
   Au1909     1.0     0.320690      0.762070      0.348275     Biso  1.000000 Au
   Au1910     1.0     0.348275      0.734483      0.348275     Biso  1.000000 Au
   Au1911     1.0     0.348275      0.762070      0.375862     Biso  1.000000 Au
   Au1912     1.0     0.375862      0.734483      0.375862     Biso  1.000000 Au
   Au1913     1.0     0.375862      0.762070      0.348275     Biso  1.000000 Au
   Au1914     1.0     0.403448      0.734483      0.348275     Biso  1.000000 Au
   Au1915     1.0     0.403448      0.762070      0.375862     Biso  1.000000 Au
   Au1916     1.0     0.431035      0.734483      0.375862     Biso  1.000000 Au
   Au1917     1.0     0.431035      0.762070      0.348275     Biso  1.000000 Au
   Au1918     1.0     0.458620      0.734483      0.348275     Biso  1.000000 Au
   Au1919     1.0     0.458620      0.762070      0.375862     Biso  1.000000 Au
   Au1920     1.0     0.486207      0.734483      0.375862     Biso  1.000000 Au
   Au1921     1.0     0.486207      0.762070      0.348275     Biso  1.000000 Au
   Au1922     1.0     0.513793      0.734483      0.348275     Biso  1.000000 Au
   Au1923     1.0     0.513793      0.762070      0.375862     Biso  1.000000 Au
   Au1924     1.0     0.541380      0.734483      0.375862     Biso  1.000000 Au
   Au1925     1.0     0.541380      0.762070      0.348275     Biso  1.000000 Au
   Au1926     1.0     0.568965      0.734483      0.348275     Biso  1.000000 Au
   Au1927     1.0     0.568965      0.762070      0.375862     Biso  1.000000 Au
   Au1928     1.0     0.596551      0.734483      0.375862     Biso  1.000000 Au
   Au1929     1.0     0.596551      0.762070      0.348275     Biso  1.000000 Au
   Au1930     1.0     0.624138      0.734483      0.348275     Biso  1.000000 Au
   Au1931     1.0     0.624138      0.762070      0.375862     Biso  1.000000 Au
   Au1932     1.0     0.651725      0.734483      0.375862     Biso  1.000000 Au
   Au1933     1.0     0.651725      0.762070      0.348275     Biso  1.000000 Au
   Au1934     1.0     0.679310      0.734483      0.348275     Biso  1.000000 Au
   Au1935     1.0     0.679310      0.762070      0.375862     Biso  1.000000 Au
   Au1936     1.0     0.706897      0.734483      0.375862     Biso  1.000000 Au
   Au1937     1.0     0.706897      0.762070      0.348275     Biso  1.000000 Au
   Au1938     1.0     0.734483      0.734483      0.348275     Biso  1.000000 Au
   Au1939     1.0     0.734483      0.762070      0.375862     Biso  1.000000 Au
   Au1940     1.0     0.762070      0.734483      0.375862     Biso  1.000000 Au
   Au1941     1.0     0.762070      0.762070      0.348275     Biso  1.000000 Au
   Au1942     1.0     0.789655      0.734483      0.348275     Biso  1.000000 Au
   Au1943     1.0     0.265517      0.789655      0.375862     Biso  1.000000 Au
   Au1944     1.0     0.293103      0.789655      0.348275     Biso  1.000000 Au
   Au1945     1.0     0.293103      0.817242      0.375862     Biso  1.000000 Au
   Au1946     1.0     0.320690      0.789655      0.375862     Biso  1.000000 Au
   Au1947     1.0     0.320690      0.817242      0.348275     Biso  1.000000 Au
   Au1948     1.0     0.348275      0.789655      0.348275     Biso  1.000000 Au
   Au1949     1.0     0.348275      0.817242      0.375862     Biso  1.000000 Au
   Au1950     1.0     0.375862      0.789655      0.375862     Biso  1.000000 Au
   Au1951     1.0     0.375862      0.817242      0.348275     Biso  1.000000 Au
   Au1952     1.0     0.403448      0.789655      0.348275     Biso  1.000000 Au
   Au1953     1.0     0.403448      0.817242      0.375862     Biso  1.000000 Au
   Au1954     1.0     0.431035      0.789655      0.375862     Biso  1.000000 Au
   Au1955     1.0     0.431035      0.817242      0.348275     Biso  1.000000 Au
   Au1956     1.0     0.458620      0.789655      0.348275     Biso  1.000000 Au
   Au1957     1.0     0.458620      0.817242      0.375862     Biso  1.000000 Au
   Au1958     1.0     0.486207      0.789655      0.375862     Biso  1.000000 Au
   Au1959     1.0     0.486207      0.817242      0.348275     Biso  1.000000 Au
   Au1960     1.0     0.513793      0.789655      0.348275     Biso  1.000000 Au
   Au1961     1.0     0.513793      0.817242      0.375862     Biso  1.000000 Au
   Au1962     1.0     0.541380      0.789655      0.375862     Biso  1.000000 Au
   Au1963     1.0     0.541380      0.817242      0.348275     Biso  1.000000 Au
   Au1964     1.0     0.568965      0.789655      0.348275     Biso  1.000000 Au
   Au1965     1.0     0.568965      0.817242      0.375862     Biso  1.000000 Au
   Au1966     1.0     0.596551      0.789655      0.375862     Biso  1.000000 Au
   Au1967     1.0     0.596551      0.817242      0.348275     Biso  1.000000 Au
   Au1968     1.0     0.624138      0.789655      0.348275     Biso  1.000000 Au
   Au1969     1.0     0.624138      0.817242      0.375862     Biso  1.000000 Au
   Au1970     1.0     0.651725      0.789655      0.375862     Biso  1.000000 Au
   Au1971     1.0     0.651725      0.817242      0.348275     Biso  1.000000 Au
   Au1972     1.0     0.679310      0.789655      0.348275     Biso  1.000000 Au
   Au1973     1.0     0.679310      0.817242      0.375862     Biso  1.000000 Au
   Au1974     1.0     0.706897      0.789655      0.375862     Biso  1.000000 Au
   Au1975     1.0     0.734483      0.789655      0.348275     Biso  1.000000 Au
   Au1976     1.0     0.375862      0.844828      0.375862     Biso  1.000000 Au
   Au1977     1.0     0.403448      0.844828      0.348275     Biso  1.000000 Au
   Au1978     1.0     0.403448      0.872413      0.375862     Biso  1.000000 Au
   Au1979     1.0     0.431035      0.844828      0.375862     Biso  1.000000 Au
   Au1980     1.0     0.458620      0.844828      0.348275     Biso  1.000000 Au
   Au1981     1.0     0.458620      0.872413      0.375862     Biso  1.000000 Au
   Au1982     1.0     0.486207      0.844828      0.375862     Biso  1.000000 Au
   Au1983     1.0     0.486207      0.872413      0.348275     Biso  1.000000 Au
   Au1984     1.0     0.513793      0.844828      0.348275     Biso  1.000000 Au
   Au1985     1.0     0.513793      0.872413      0.375862     Biso  1.000000 Au
   Au1986     1.0     0.541380      0.844828      0.375862     Biso  1.000000 Au
   Au1987     1.0     0.541380      0.872413      0.348275     Biso  1.000000 Au
   Au1988     1.0     0.568965      0.844828      0.348275     Biso  1.000000 Au
   Au1989     1.0     0.568965      0.872413      0.375862     Biso  1.000000 Au
   Au1990     1.0     0.596551      0.844828      0.375862     Biso  1.000000 Au
   Au1991     1.0     0.624138      0.844828      0.348275     Biso  1.000000 Au
   Au1992     1.0     0.651725      0.844828      0.375862     Biso  1.000000 Au
   Au1993     1.0     0.320690      0.155171      0.403448     Biso  1.000000 Au
   Au1994     1.0     0.348275      0.155171      0.431035     Biso  1.000000 Au
   Au1995     1.0     0.375862      0.127586      0.431035     Biso  1.000000 Au
   Au1996     1.0     0.375862      0.155171      0.403448     Biso  1.000000 Au
   Au1997     1.0     0.403448      0.127586      0.403448     Biso  1.000000 Au
   Au1998     1.0     0.403448      0.155171      0.431035     Biso  1.000000 Au
   Au1999     1.0     0.431035      0.127586      0.431035     Biso  1.000000 Au
   Au2000     1.0     0.431035      0.155171      0.403448     Biso  1.000000 Au
   Au2001     1.0     0.458620      0.127586      0.403448     Biso  1.000000 Au
   Au2002     1.0     0.458620      0.155171      0.431035     Biso  1.000000 Au
   Au2003     1.0     0.486207      0.127586      0.431035     Biso  1.000000 Au
   Au2004     1.0     0.486207      0.155171      0.403448     Biso  1.000000 Au
   Au2005     1.0     0.513793      0.127586      0.403448     Biso  1.000000 Au
   Au2006     1.0     0.513793      0.155171      0.431035     Biso  1.000000 Au
   Au2007     1.0     0.541380      0.127586      0.431035     Biso  1.000000 Au
   Au2008     1.0     0.541380      0.155171      0.403448     Biso  1.000000 Au
   Au2009     1.0     0.568965      0.127586      0.403448     Biso  1.000000 Au
   Au2010     1.0     0.568965      0.155171      0.431035     Biso  1.000000 Au
   Au2011     1.0     0.596551      0.127586      0.431035     Biso  1.000000 Au
   Au2012     1.0     0.596551      0.155171      0.403448     Biso  1.000000 Au
   Au2013     1.0     0.624138      0.127586      0.403448     Biso  1.000000 Au
   Au2014     1.0     0.624138      0.155171      0.431035     Biso  1.000000 Au
   Au2015     1.0     0.651725      0.155171      0.403448     Biso  1.000000 Au
   Au2016     1.0     0.679310      0.155171      0.431035     Biso  1.000000 Au
   Au2017     1.0     0.237930      0.210345      0.431035     Biso  1.000000 Au
   Au2018     1.0     0.265517      0.182758      0.431035     Biso  1.000000 Au
   Au2019     1.0     0.265517      0.210345      0.403448     Biso  1.000000 Au
   Au2020     1.0     0.293103      0.182758      0.403448     Biso  1.000000 Au
   Au2021     1.0     0.293103      0.210345      0.431035     Biso  1.000000 Au
   Au2022     1.0     0.320690      0.182758      0.431035     Biso  1.000000 Au
   Au2023     1.0     0.320690      0.210345      0.403448     Biso  1.000000 Au
   Au2024     1.0     0.348275      0.182758      0.403448     Biso  1.000000 Au
   Au2025     1.0     0.348275      0.210345      0.431035     Biso  1.000000 Au
   Au2026     1.0     0.375862      0.182758      0.431035     Biso  1.000000 Au
   Au2027     1.0     0.375862      0.210345      0.403448     Biso  1.000000 Au
   Au2028     1.0     0.403448      0.182758      0.403448     Biso  1.000000 Au
   Au2029     1.0     0.403448      0.210345      0.431035     Biso  1.000000 Au
   Au2030     1.0     0.431035      0.182758      0.431035     Biso  1.000000 Au
   Au2031     1.0     0.431035      0.210345      0.403448     Biso  1.000000 Au
   Au2032     1.0     0.458620      0.182758      0.403448     Biso  1.000000 Au
   Au2033     1.0     0.458620      0.210345      0.431035     Biso  1.000000 Au
   Au2034     1.0     0.486207      0.182758      0.431035     Biso  1.000000 Au
   Au2035     1.0     0.486207      0.210345      0.403448     Biso  1.000000 Au
   Au2036     1.0     0.513793      0.182758      0.403448     Biso  1.000000 Au
   Au2037     1.0     0.513793      0.210345      0.431035     Biso  1.000000 Au
   Au2038     1.0     0.541380      0.182758      0.431035     Biso  1.000000 Au
   Au2039     1.0     0.541380      0.210345      0.403448     Biso  1.000000 Au
   Au2040     1.0     0.568965      0.182758      0.403448     Biso  1.000000 Au
   Au2041     1.0     0.568965      0.210345      0.431035     Biso  1.000000 Au
   Au2042     1.0     0.596551      0.182758      0.431035     Biso  1.000000 Au
   Au2043     1.0     0.596551      0.210345      0.403448     Biso  1.000000 Au
   Au2044     1.0     0.624138      0.182758      0.403448     Biso  1.000000 Au
   Au2045     1.0     0.624138      0.210345      0.431035     Biso  1.000000 Au
   Au2046     1.0     0.651725      0.182758      0.431035     Biso  1.000000 Au
   Au2047     1.0     0.651725      0.210345      0.403448     Biso  1.000000 Au
   Au2048     1.0     0.679310      0.182758      0.403448     Biso  1.000000 Au
   Au2049     1.0     0.679310      0.210345      0.431035     Biso  1.000000 Au
   Au2050     1.0     0.706897      0.182758      0.431035     Biso  1.000000 Au
   Au2051     1.0     0.706897      0.210345      0.403448     Biso  1.000000 Au
   Au2052     1.0     0.734483      0.210345      0.431035     Biso  1.000000 Au
   Au2053     1.0     0.762070      0.210345      0.403448     Biso  1.000000 Au
   Au2054     1.0     0.182758      0.265517      0.431035     Biso  1.000000 Au
   Au2055     1.0     0.210345      0.237930      0.431035     Biso  1.000000 Au
   Au2056     1.0     0.210345      0.265517      0.403448     Biso  1.000000 Au
   Au2057     1.0     0.237930      0.237930      0.403448     Biso  1.000000 Au
   Au2058     1.0     0.237930      0.265517      0.431035     Biso  1.000000 Au
   Au2059     1.0     0.265517      0.237930      0.431035     Biso  1.000000 Au
   Au2060     1.0     0.265517      0.265517      0.403448     Biso  1.000000 Au
   Au2061     1.0     0.293103      0.237930      0.403448     Biso  1.000000 Au
   Au2062     1.0     0.293103      0.265517      0.431035     Biso  1.000000 Au
   Au2063     1.0     0.320690      0.237930      0.431035     Biso  1.000000 Au
   Au2064     1.0     0.320690      0.265517      0.403448     Biso  1.000000 Au
   Au2065     1.0     0.348275      0.237930      0.403448     Biso  1.000000 Au
   Au2066     1.0     0.348275      0.265517      0.431035     Biso  1.000000 Au
   Au2067     1.0     0.375862      0.237930      0.431035     Biso  1.000000 Au
   Au2068     1.0     0.375862      0.265517      0.403448     Biso  1.000000 Au
   Au2069     1.0     0.403448      0.237930      0.403448     Biso  1.000000 Au
   Au2070     1.0     0.403448      0.265517      0.431035     Biso  1.000000 Au
   Au2071     1.0     0.431035      0.237930      0.431035     Biso  1.000000 Au
   Au2072     1.0     0.431035      0.265517      0.403448     Biso  1.000000 Au
   Au2073     1.0     0.458620      0.237930      0.403448     Biso  1.000000 Au
   Au2074     1.0     0.458620      0.265517      0.431035     Biso  1.000000 Au
   Au2075     1.0     0.486207      0.237930      0.431035     Biso  1.000000 Au
   Au2076     1.0     0.486207      0.265517      0.403448     Biso  1.000000 Au
   Au2077     1.0     0.513793      0.237930      0.403448     Biso  1.000000 Au
   Au2078     1.0     0.513793      0.265517      0.431035     Biso  1.000000 Au
   Au2079     1.0     0.541380      0.237930      0.431035     Biso  1.000000 Au
   Au2080     1.0     0.541380      0.265517      0.403448     Biso  1.000000 Au
   Au2081     1.0     0.568965      0.237930      0.403448     Biso  1.000000 Au
   Au2082     1.0     0.568965      0.265517      0.431035     Biso  1.000000 Au
   Au2083     1.0     0.596551      0.237930      0.431035     Biso  1.000000 Au
   Au2084     1.0     0.596551      0.265517      0.403448     Biso  1.000000 Au
   Au2085     1.0     0.624138      0.237930      0.403448     Biso  1.000000 Au
   Au2086     1.0     0.624138      0.265517      0.431035     Biso  1.000000 Au
   Au2087     1.0     0.651725      0.237930      0.431035     Biso  1.000000 Au
   Au2088     1.0     0.651725      0.265517      0.403448     Biso  1.000000 Au
   Au2089     1.0     0.679310      0.237930      0.403448     Biso  1.000000 Au
   Au2090     1.0     0.679310      0.265517      0.431035     Biso  1.000000 Au
   Au2091     1.0     0.706897      0.237930      0.431035     Biso  1.000000 Au
   Au2092     1.0     0.706897      0.265517      0.403448     Biso  1.000000 Au
   Au2093     1.0     0.734483      0.237930      0.403448     Biso  1.000000 Au
   Au2094     1.0     0.734483      0.265517      0.431035     Biso  1.000000 Au
   Au2095     1.0     0.762070      0.237930      0.431035     Biso  1.000000 Au
   Au2096     1.0     0.762070      0.265517      0.403448     Biso  1.000000 Au
   Au2097     1.0     0.789655      0.237930      0.403448     Biso  1.000000 Au
   Au2098     1.0     0.789655      0.265517      0.431035     Biso  1.000000 Au
   Au2099     1.0     0.155171      0.320690      0.403448     Biso  1.000000 Au
   Au2100     1.0     0.182758      0.293103      0.403448     Biso  1.000000 Au
   Au2101     1.0     0.182758      0.320690      0.431035     Biso  1.000000 Au
   Au2102     1.0     0.210345      0.293103      0.431035     Biso  1.000000 Au
   Au2103     1.0     0.210345      0.320690      0.403448     Biso  1.000000 Au
   Au2104     1.0     0.237930      0.293103      0.403448     Biso  1.000000 Au
   Au2105     1.0     0.237930      0.320690      0.431035     Biso  1.000000 Au
   Au2106     1.0     0.265517      0.293103      0.431035     Biso  1.000000 Au
   Au2107     1.0     0.265517      0.320690      0.403448     Biso  1.000000 Au
   Au2108     1.0     0.293103      0.293103      0.403448     Biso  1.000000 Au
   Au2109     1.0     0.293103      0.320690      0.431035     Biso  1.000000 Au
   Au2110     1.0     0.320690      0.293103      0.431035     Biso  1.000000 Au
   Au2111     1.0     0.320690      0.320690      0.403448     Biso  1.000000 Au
   Au2112     1.0     0.348275      0.293103      0.403448     Biso  1.000000 Au
   Au2113     1.0     0.348275      0.320690      0.431035     Biso  1.000000 Au
   Au2114     1.0     0.375862      0.293103      0.431035     Biso  1.000000 Au
   Au2115     1.0     0.375862      0.320690      0.403448     Biso  1.000000 Au
   Au2116     1.0     0.403448      0.293103      0.403448     Biso  1.000000 Au
   Au2117     1.0     0.403448      0.320690      0.431035     Biso  1.000000 Au
   Au2118     1.0     0.431035      0.293103      0.431035     Biso  1.000000 Au
   Au2119     1.0     0.431035      0.320690      0.403448     Biso  1.000000 Au
   Au2120     1.0     0.458620      0.293103      0.403448     Biso  1.000000 Au
   Au2121     1.0     0.458620      0.320690      0.431035     Biso  1.000000 Au
   Au2122     1.0     0.486207      0.293103      0.431035     Biso  1.000000 Au
   Au2123     1.0     0.486207      0.320690      0.403448     Biso  1.000000 Au
   Au2124     1.0     0.513793      0.293103      0.403448     Biso  1.000000 Au
   Au2125     1.0     0.513793      0.320690      0.431035     Biso  1.000000 Au
   Au2126     1.0     0.541380      0.293103      0.431035     Biso  1.000000 Au
   Au2127     1.0     0.541380      0.320690      0.403448     Biso  1.000000 Au
   Au2128     1.0     0.568965      0.293103      0.403448     Biso  1.000000 Au
   Au2129     1.0     0.568965      0.320690      0.431035     Biso  1.000000 Au
   Au2130     1.0     0.596551      0.293103      0.431035     Biso  1.000000 Au
   Au2131     1.0     0.596551      0.320690      0.403448     Biso  1.000000 Au
   Au2132     1.0     0.624138      0.293103      0.403448     Biso  1.000000 Au
   Au2133     1.0     0.624138      0.320690      0.431035     Biso  1.000000 Au
   Au2134     1.0     0.651725      0.293103      0.431035     Biso  1.000000 Au
   Au2135     1.0     0.651725      0.320690      0.403448     Biso  1.000000 Au
   Au2136     1.0     0.679310      0.293103      0.403448     Biso  1.000000 Au
   Au2137     1.0     0.679310      0.320690      0.431035     Biso  1.000000 Au
   Au2138     1.0     0.706897      0.293103      0.431035     Biso  1.000000 Au
   Au2139     1.0     0.706897      0.320690      0.403448     Biso  1.000000 Au
   Au2140     1.0     0.734483      0.293103      0.403448     Biso  1.000000 Au
   Au2141     1.0     0.734483      0.320690      0.431035     Biso  1.000000 Au
   Au2142     1.0     0.762070      0.293103      0.431035     Biso  1.000000 Au
   Au2143     1.0     0.762070      0.320690      0.403448     Biso  1.000000 Au
   Au2144     1.0     0.789655      0.293103      0.403448     Biso  1.000000 Au
   Au2145     1.0     0.789655      0.320690      0.431035     Biso  1.000000 Au
   Au2146     1.0     0.817242      0.293103      0.431035     Biso  1.000000 Au
   Au2147     1.0     0.817242      0.320690      0.403448     Biso  1.000000 Au
   Au2148     1.0     0.844828      0.320690      0.431035     Biso  1.000000 Au
   Au2149     1.0     0.127586      0.375862      0.431035     Biso  1.000000 Au
   Au2150     1.0     0.155171      0.348275      0.431035     Biso  1.000000 Au
   Au2151     1.0     0.155171      0.375862      0.403448     Biso  1.000000 Au
   Au2152     1.0     0.182758      0.348275      0.403448     Biso  1.000000 Au
   Au2153     1.0     0.182758      0.375862      0.431035     Biso  1.000000 Au
   Au2154     1.0     0.210345      0.348275      0.431035     Biso  1.000000 Au
   Au2155     1.0     0.210345      0.375862      0.403448     Biso  1.000000 Au
   Au2156     1.0     0.237930      0.348275      0.403448     Biso  1.000000 Au
   Au2157     1.0     0.237930      0.375862      0.431035     Biso  1.000000 Au
   Au2158     1.0     0.265517      0.348275      0.431035     Biso  1.000000 Au
   Au2159     1.0     0.265517      0.375862      0.403448     Biso  1.000000 Au
   Au2160     1.0     0.293103      0.348275      0.403448     Biso  1.000000 Au
   Au2161     1.0     0.293103      0.375862      0.431035     Biso  1.000000 Au
   Au2162     1.0     0.320690      0.348275      0.431035     Biso  1.000000 Au
   Au2163     1.0     0.320690      0.375862      0.403448     Biso  1.000000 Au
   Au2164     1.0     0.348275      0.348275      0.403448     Biso  1.000000 Au
   Au2165     1.0     0.348275      0.375862      0.431035     Biso  1.000000 Au
   Au2166     1.0     0.375862      0.348275      0.431035     Biso  1.000000 Au
   Au2167     1.0     0.375862      0.375862      0.403448     Biso  1.000000 Au
   Au2168     1.0     0.403448      0.348275      0.403448     Biso  1.000000 Au
   Au2169     1.0     0.403448      0.375862      0.431035     Biso  1.000000 Au
   Au2170     1.0     0.431035      0.348275      0.431035     Biso  1.000000 Au
   Au2171     1.0     0.431035      0.375862      0.403448     Biso  1.000000 Au
   Au2172     1.0     0.458620      0.348275      0.403448     Biso  1.000000 Au
   Au2173     1.0     0.458620      0.375862      0.431035     Biso  1.000000 Au
   Au2174     1.0     0.486207      0.348275      0.431035     Biso  1.000000 Au
   Au2175     1.0     0.486207      0.375862      0.403448     Biso  1.000000 Au
   Au2176     1.0     0.513793      0.348275      0.403448     Biso  1.000000 Au
   Au2177     1.0     0.513793      0.375862      0.431035     Biso  1.000000 Au
   Au2178     1.0     0.541380      0.348275      0.431035     Biso  1.000000 Au
   Au2179     1.0     0.541380      0.375862      0.403448     Biso  1.000000 Au
   Au2180     1.0     0.568965      0.348275      0.403448     Biso  1.000000 Au
   Au2181     1.0     0.568965      0.375862      0.431035     Biso  1.000000 Au
   Au2182     1.0     0.596551      0.348275      0.431035     Biso  1.000000 Au
   Au2183     1.0     0.596551      0.375862      0.403448     Biso  1.000000 Au
   Au2184     1.0     0.624138      0.348275      0.403448     Biso  1.000000 Au
   Au2185     1.0     0.624138      0.375862      0.431035     Biso  1.000000 Au
   Au2186     1.0     0.651725      0.348275      0.431035     Biso  1.000000 Au
   Au2187     1.0     0.651725      0.375862      0.403448     Biso  1.000000 Au
   Au2188     1.0     0.679310      0.348275      0.403448     Biso  1.000000 Au
   Au2189     1.0     0.679310      0.375862      0.431035     Biso  1.000000 Au
   Au2190     1.0     0.706897      0.348275      0.431035     Biso  1.000000 Au
   Au2191     1.0     0.706897      0.375862      0.403448     Biso  1.000000 Au
   Au2192     1.0     0.734483      0.348275      0.403448     Biso  1.000000 Au
   Au2193     1.0     0.734483      0.375862      0.431035     Biso  1.000000 Au
   Au2194     1.0     0.762070      0.348275      0.431035     Biso  1.000000 Au
   Au2195     1.0     0.762070      0.375862      0.403448     Biso  1.000000 Au
   Au2196     1.0     0.789655      0.348275      0.403448     Biso  1.000000 Au
   Au2197     1.0     0.789655      0.375862      0.431035     Biso  1.000000 Au
   Au2198     1.0     0.817242      0.348275      0.431035     Biso  1.000000 Au
   Au2199     1.0     0.817242      0.375862      0.403448     Biso  1.000000 Au
   Au2200     1.0     0.844828      0.348275      0.403448     Biso  1.000000 Au
   Au2201     1.0     0.844828      0.375862      0.431035     Biso  1.000000 Au
   Au2202     1.0     0.872413      0.375862      0.403448     Biso  1.000000 Au
   Au2203     1.0     0.127586      0.403448      0.403448     Biso  1.000000 Au
   Au2204     1.0     0.127586      0.431035      0.431035     Biso  1.000000 Au
   Au2205     1.0     0.155171      0.403448      0.431035     Biso  1.000000 Au
   Au2206     1.0     0.155171      0.431035      0.403448     Biso  1.000000 Au
   Au2207     1.0     0.182758      0.403448      0.403448     Biso  1.000000 Au
   Au2208     1.0     0.182758      0.431035      0.431035     Biso  1.000000 Au
   Au2209     1.0     0.210345      0.403448      0.431035     Biso  1.000000 Au
   Au2210     1.0     0.210345      0.431035      0.403448     Biso  1.000000 Au
   Au2211     1.0     0.237930      0.403448      0.403448     Biso  1.000000 Au
   Au2212     1.0     0.237930      0.431035      0.431035     Biso  1.000000 Au
   Au2213     1.0     0.265517      0.403448      0.431035     Biso  1.000000 Au
   Au2214     1.0     0.265517      0.431035      0.403448     Biso  1.000000 Au
   Au2215     1.0     0.293103      0.403448      0.403448     Biso  1.000000 Au
   Au2216     1.0     0.293103      0.431035      0.431035     Biso  1.000000 Au
   Au2217     1.0     0.320690      0.403448      0.431035     Biso  1.000000 Au
   Au2218     1.0     0.320690      0.431035      0.403448     Biso  1.000000 Au
   Au2219     1.0     0.348275      0.403448      0.403448     Biso  1.000000 Au
   Au2220     1.0     0.348275      0.431035      0.431035     Biso  1.000000 Au
   Au2221     1.0     0.375862      0.403448      0.431035     Biso  1.000000 Au
   Au2222     1.0     0.375862      0.431035      0.403448     Biso  1.000000 Au
   Au2223     1.0     0.403448      0.403448      0.403448     Biso  1.000000 Au
   Au2224     1.0     0.403448      0.431035      0.431035     Biso  1.000000 Au
   Au2225     1.0     0.431035      0.403448      0.431035     Biso  1.000000 Au
   Au2226     1.0     0.431035      0.431035      0.403448     Biso  1.000000 Au
   Au2227     1.0     0.458620      0.403448      0.403448     Biso  1.000000 Au
   Au2228     1.0     0.458620      0.431035      0.431035     Biso  1.000000 Au
   Au2229     1.0     0.486207      0.403448      0.431035     Biso  1.000000 Au
   Au2230     1.0     0.486207      0.431035      0.403448     Biso  1.000000 Au
   Au2231     1.0     0.513793      0.403448      0.403448     Biso  1.000000 Au
   Au2232     1.0     0.513793      0.431035      0.431035     Biso  1.000000 Au
   Au2233     1.0     0.541380      0.403448      0.431035     Biso  1.000000 Au
   Au2234     1.0     0.541380      0.431035      0.403448     Biso  1.000000 Au
   Au2235     1.0     0.568965      0.403448      0.403448     Biso  1.000000 Au
   Au2236     1.0     0.568965      0.431035      0.431035     Biso  1.000000 Au
   Au2237     1.0     0.596551      0.403448      0.431035     Biso  1.000000 Au
   Au2238     1.0     0.596551      0.431035      0.403448     Biso  1.000000 Au
   Au2239     1.0     0.624138      0.403448      0.403448     Biso  1.000000 Au
   Au2240     1.0     0.624138      0.431035      0.431035     Biso  1.000000 Au
   Au2241     1.0     0.651725      0.403448      0.431035     Biso  1.000000 Au
   Au2242     1.0     0.651725      0.431035      0.403448     Biso  1.000000 Au
   Au2243     1.0     0.679310      0.403448      0.403448     Biso  1.000000 Au
   Au2244     1.0     0.679310      0.431035      0.431035     Biso  1.000000 Au
   Au2245     1.0     0.706897      0.403448      0.431035     Biso  1.000000 Au
   Au2246     1.0     0.706897      0.431035      0.403448     Biso  1.000000 Au
   Au2247     1.0     0.734483      0.403448      0.403448     Biso  1.000000 Au
   Au2248     1.0     0.734483      0.431035      0.431035     Biso  1.000000 Au
   Au2249     1.0     0.762070      0.403448      0.431035     Biso  1.000000 Au
   Au2250     1.0     0.762070      0.431035      0.403448     Biso  1.000000 Au
   Au2251     1.0     0.789655      0.403448      0.403448     Biso  1.000000 Au
   Au2252     1.0     0.789655      0.431035      0.431035     Biso  1.000000 Au
   Au2253     1.0     0.817242      0.403448      0.431035     Biso  1.000000 Au
   Au2254     1.0     0.817242      0.431035      0.403448     Biso  1.000000 Au
   Au2255     1.0     0.844828      0.403448      0.403448     Biso  1.000000 Au
   Au2256     1.0     0.844828      0.431035      0.431035     Biso  1.000000 Au
   Au2257     1.0     0.872413      0.403448      0.431035     Biso  1.000000 Au
   Au2258     1.0     0.872413      0.431035      0.403448     Biso  1.000000 Au
   Au2259     1.0     0.127586      0.458620      0.403448     Biso  1.000000 Au
   Au2260     1.0     0.127586      0.486207      0.431035     Biso  1.000000 Au
   Au2261     1.0     0.155171      0.458620      0.431035     Biso  1.000000 Au
   Au2262     1.0     0.155171      0.486207      0.403448     Biso  1.000000 Au
   Au2263     1.0     0.182758      0.458620      0.403448     Biso  1.000000 Au
   Au2264     1.0     0.182758      0.486207      0.431035     Biso  1.000000 Au
   Au2265     1.0     0.210345      0.458620      0.431035     Biso  1.000000 Au
   Au2266     1.0     0.210345      0.486207      0.403448     Biso  1.000000 Au
   Au2267     1.0     0.237930      0.458620      0.403448     Biso  1.000000 Au
   Au2268     1.0     0.237930      0.486207      0.431035     Biso  1.000000 Au
   Au2269     1.0     0.265517      0.458620      0.431035     Biso  1.000000 Au
   Au2270     1.0     0.265517      0.486207      0.403448     Biso  1.000000 Au
   Au2271     1.0     0.293103      0.458620      0.403448     Biso  1.000000 Au
   Au2272     1.0     0.293103      0.486207      0.431035     Biso  1.000000 Au
   Au2273     1.0     0.320690      0.458620      0.431035     Biso  1.000000 Au
   Au2274     1.0     0.320690      0.486207      0.403448     Biso  1.000000 Au
   Au2275     1.0     0.348275      0.458620      0.403448     Biso  1.000000 Au
   Au2276     1.0     0.348275      0.486207      0.431035     Biso  1.000000 Au
   Au2277     1.0     0.375862      0.458620      0.431035     Biso  1.000000 Au
   Au2278     1.0     0.375862      0.486207      0.403448     Biso  1.000000 Au
   Au2279     1.0     0.403448      0.458620      0.403448     Biso  1.000000 Au
   Au2280     1.0     0.403448      0.486207      0.431035     Biso  1.000000 Au
   Au2281     1.0     0.431035      0.458620      0.431035     Biso  1.000000 Au
   Au2282     1.0     0.431035      0.486207      0.403448     Biso  1.000000 Au
   Au2283     1.0     0.458620      0.458620      0.403448     Biso  1.000000 Au
   Au2284     1.0     0.458620      0.486207      0.431035     Biso  1.000000 Au
   Au2285     1.0     0.486207      0.458620      0.431035     Biso  1.000000 Au
   Au2286     1.0     0.486207      0.486207      0.403448     Biso  1.000000 Au
   Au2287     1.0     0.513793      0.458620      0.403448     Biso  1.000000 Au
   Au2288     1.0     0.513793      0.486207      0.431035     Biso  1.000000 Au
   Au2289     1.0     0.541380      0.458620      0.431035     Biso  1.000000 Au
   Au2290     1.0     0.541380      0.486207      0.403448     Biso  1.000000 Au
   Au2291     1.0     0.568965      0.458620      0.403448     Biso  1.000000 Au
   Au2292     1.0     0.568965      0.486207      0.431035     Biso  1.000000 Au
   Au2293     1.0     0.596551      0.458620      0.431035     Biso  1.000000 Au
   Au2294     1.0     0.596551      0.486207      0.403448     Biso  1.000000 Au
   Au2295     1.0     0.624138      0.458620      0.403448     Biso  1.000000 Au
   Au2296     1.0     0.624138      0.486207      0.431035     Biso  1.000000 Au
   Au2297     1.0     0.651725      0.458620      0.431035     Biso  1.000000 Au
   Au2298     1.0     0.651725      0.486207      0.403448     Biso  1.000000 Au
   Au2299     1.0     0.679310      0.458620      0.403448     Biso  1.000000 Au
   Au2300     1.0     0.679310      0.486207      0.431035     Biso  1.000000 Au
   Au2301     1.0     0.706897      0.458620      0.431035     Biso  1.000000 Au
   Au2302     1.0     0.706897      0.486207      0.403448     Biso  1.000000 Au
   Au2303     1.0     0.734483      0.458620      0.403448     Biso  1.000000 Au
   Au2304     1.0     0.734483      0.486207      0.431035     Biso  1.000000 Au
   Au2305     1.0     0.762070      0.458620      0.431035     Biso  1.000000 Au
   Au2306     1.0     0.762070      0.486207      0.403448     Biso  1.000000 Au
   Au2307     1.0     0.789655      0.458620      0.403448     Biso  1.000000 Au
   Au2308     1.0     0.789655      0.486207      0.431035     Biso  1.000000 Au
   Au2309     1.0     0.817242      0.458620      0.431035     Biso  1.000000 Au
   Au2310     1.0     0.817242      0.486207      0.403448     Biso  1.000000 Au
   Au2311     1.0     0.844828      0.458620      0.403448     Biso  1.000000 Au
   Au2312     1.0     0.844828      0.486207      0.431035     Biso  1.000000 Au
   Au2313     1.0     0.872413      0.458620      0.431035     Biso  1.000000 Au
   Au2314     1.0     0.872413      0.486207      0.403448     Biso  1.000000 Au
   Au2315     1.0     0.127586      0.513793      0.403448     Biso  1.000000 Au
   Au2316     1.0     0.127586      0.541380      0.431035     Biso  1.000000 Au
   Au2317     1.0     0.155171      0.513793      0.431035     Biso  1.000000 Au
   Au2318     1.0     0.155171      0.541380      0.403448     Biso  1.000000 Au
   Au2319     1.0     0.182758      0.513793      0.403448     Biso  1.000000 Au
   Au2320     1.0     0.182758      0.541380      0.431035     Biso  1.000000 Au
   Au2321     1.0     0.210345      0.513793      0.431035     Biso  1.000000 Au
   Au2322     1.0     0.210345      0.541380      0.403448     Biso  1.000000 Au
   Au2323     1.0     0.237930      0.513793      0.403448     Biso  1.000000 Au
   Au2324     1.0     0.237930      0.541380      0.431035     Biso  1.000000 Au
   Au2325     1.0     0.265517      0.513793      0.431035     Biso  1.000000 Au
   Au2326     1.0     0.265517      0.541380      0.403448     Biso  1.000000 Au
   Au2327     1.0     0.293103      0.513793      0.403448     Biso  1.000000 Au
   Au2328     1.0     0.293103      0.541380      0.431035     Biso  1.000000 Au
   Au2329     1.0     0.320690      0.513793      0.431035     Biso  1.000000 Au
   Au2330     1.0     0.320690      0.541380      0.403448     Biso  1.000000 Au
   Au2331     1.0     0.348275      0.513793      0.403448     Biso  1.000000 Au
   Au2332     1.0     0.348275      0.541380      0.431035     Biso  1.000000 Au
   Au2333     1.0     0.375862      0.513793      0.431035     Biso  1.000000 Au
   Au2334     1.0     0.375862      0.541380      0.403448     Biso  1.000000 Au
   Au2335     1.0     0.403448      0.513793      0.403448     Biso  1.000000 Au
   Au2336     1.0     0.403448      0.541380      0.431035     Biso  1.000000 Au
   Au2337     1.0     0.431035      0.513793      0.431035     Biso  1.000000 Au
   Au2338     1.0     0.431035      0.541380      0.403448     Biso  1.000000 Au
   Au2339     1.0     0.458620      0.513793      0.403448     Biso  1.000000 Au
   Au2340     1.0     0.458620      0.541380      0.431035     Biso  1.000000 Au
   Au2341     1.0     0.486207      0.513793      0.431035     Biso  1.000000 Au
   Au2342     1.0     0.486207      0.541380      0.403448     Biso  1.000000 Au
   Au2343     1.0     0.513793      0.513793      0.403448     Biso  1.000000 Au
   Au2344     1.0     0.513793      0.541380      0.431035     Biso  1.000000 Au
   Au2345     1.0     0.541380      0.513793      0.431035     Biso  1.000000 Au
   Au2346     1.0     0.541380      0.541380      0.403448     Biso  1.000000 Au
   Au2347     1.0     0.568965      0.513793      0.403448     Biso  1.000000 Au
   Au2348     1.0     0.568965      0.541380      0.431035     Biso  1.000000 Au
   Au2349     1.0     0.596551      0.513793      0.431035     Biso  1.000000 Au
   Au2350     1.0     0.596551      0.541380      0.403448     Biso  1.000000 Au
   Au2351     1.0     0.624138      0.513793      0.403448     Biso  1.000000 Au
   Au2352     1.0     0.624138      0.541380      0.431035     Biso  1.000000 Au
   Au2353     1.0     0.651725      0.513793      0.431035     Biso  1.000000 Au
   Au2354     1.0     0.651725      0.541380      0.403448     Biso  1.000000 Au
   Au2355     1.0     0.679310      0.513793      0.403448     Biso  1.000000 Au
   Au2356     1.0     0.679310      0.541380      0.431035     Biso  1.000000 Au
   Au2357     1.0     0.706897      0.513793      0.431035     Biso  1.000000 Au
   Au2358     1.0     0.706897      0.541380      0.403448     Biso  1.000000 Au
   Au2359     1.0     0.734483      0.513793      0.403448     Biso  1.000000 Au
   Au2360     1.0     0.734483      0.541380      0.431035     Biso  1.000000 Au
   Au2361     1.0     0.762070      0.513793      0.431035     Biso  1.000000 Au
   Au2362     1.0     0.762070      0.541380      0.403448     Biso  1.000000 Au
   Au2363     1.0     0.789655      0.513793      0.403448     Biso  1.000000 Au
   Au2364     1.0     0.789655      0.541380      0.431035     Biso  1.000000 Au
   Au2365     1.0     0.817242      0.513793      0.431035     Biso  1.000000 Au
   Au2366     1.0     0.817242      0.541380      0.403448     Biso  1.000000 Au
   Au2367     1.0     0.844828      0.513793      0.403448     Biso  1.000000 Au
   Au2368     1.0     0.844828      0.541380      0.431035     Biso  1.000000 Au
   Au2369     1.0     0.872413      0.513793      0.431035     Biso  1.000000 Au
   Au2370     1.0     0.872413      0.541380      0.403448     Biso  1.000000 Au
   Au2371     1.0     0.127586      0.568965      0.403448     Biso  1.000000 Au
   Au2372     1.0     0.127586      0.596551      0.431035     Biso  1.000000 Au
   Au2373     1.0     0.155171      0.568965      0.431035     Biso  1.000000 Au
   Au2374     1.0     0.155171      0.596551      0.403448     Biso  1.000000 Au
   Au2375     1.0     0.182758      0.568965      0.403448     Biso  1.000000 Au
   Au2376     1.0     0.182758      0.596551      0.431035     Biso  1.000000 Au
   Au2377     1.0     0.210345      0.568965      0.431035     Biso  1.000000 Au
   Au2378     1.0     0.210345      0.596551      0.403448     Biso  1.000000 Au
   Au2379     1.0     0.237930      0.568965      0.403448     Biso  1.000000 Au
   Au2380     1.0     0.237930      0.596551      0.431035     Biso  1.000000 Au
   Au2381     1.0     0.265517      0.568965      0.431035     Biso  1.000000 Au
   Au2382     1.0     0.265517      0.596551      0.403448     Biso  1.000000 Au
   Au2383     1.0     0.293103      0.568965      0.403448     Biso  1.000000 Au
   Au2384     1.0     0.293103      0.596551      0.431035     Biso  1.000000 Au
   Au2385     1.0     0.320690      0.568965      0.431035     Biso  1.000000 Au
   Au2386     1.0     0.320690      0.596551      0.403448     Biso  1.000000 Au
   Au2387     1.0     0.348275      0.568965      0.403448     Biso  1.000000 Au
   Au2388     1.0     0.348275      0.596551      0.431035     Biso  1.000000 Au
   Au2389     1.0     0.375862      0.568965      0.431035     Biso  1.000000 Au
   Au2390     1.0     0.375862      0.596551      0.403448     Biso  1.000000 Au
   Au2391     1.0     0.403448      0.568965      0.403448     Biso  1.000000 Au
   Au2392     1.0     0.403448      0.596551      0.431035     Biso  1.000000 Au
   Au2393     1.0     0.431035      0.568965      0.431035     Biso  1.000000 Au
   Au2394     1.0     0.431035      0.596551      0.403448     Biso  1.000000 Au
   Au2395     1.0     0.458620      0.568965      0.403448     Biso  1.000000 Au
   Au2396     1.0     0.458620      0.596551      0.431035     Biso  1.000000 Au
   Au2397     1.0     0.486207      0.568965      0.431035     Biso  1.000000 Au
   Au2398     1.0     0.486207      0.596551      0.403448     Biso  1.000000 Au
   Au2399     1.0     0.513793      0.568965      0.403448     Biso  1.000000 Au
   Au2400     1.0     0.513793      0.596551      0.431035     Biso  1.000000 Au
   Au2401     1.0     0.541380      0.568965      0.431035     Biso  1.000000 Au
   Au2402     1.0     0.541380      0.596551      0.403448     Biso  1.000000 Au
   Au2403     1.0     0.568965      0.568965      0.403448     Biso  1.000000 Au
   Au2404     1.0     0.568965      0.596551      0.431035     Biso  1.000000 Au
   Au2405     1.0     0.596551      0.568965      0.431035     Biso  1.000000 Au
   Au2406     1.0     0.596551      0.596551      0.403448     Biso  1.000000 Au
   Au2407     1.0     0.624138      0.568965      0.403448     Biso  1.000000 Au
   Au2408     1.0     0.624138      0.596551      0.431035     Biso  1.000000 Au
   Au2409     1.0     0.651725      0.568965      0.431035     Biso  1.000000 Au
   Au2410     1.0     0.651725      0.596551      0.403448     Biso  1.000000 Au
   Au2411     1.0     0.679310      0.568965      0.403448     Biso  1.000000 Au
   Au2412     1.0     0.679310      0.596551      0.431035     Biso  1.000000 Au
   Au2413     1.0     0.706897      0.568965      0.431035     Biso  1.000000 Au
   Au2414     1.0     0.706897      0.596551      0.403448     Biso  1.000000 Au
   Au2415     1.0     0.734483      0.568965      0.403448     Biso  1.000000 Au
   Au2416     1.0     0.734483      0.596551      0.431035     Biso  1.000000 Au
   Au2417     1.0     0.762070      0.568965      0.431035     Biso  1.000000 Au
   Au2418     1.0     0.762070      0.596551      0.403448     Biso  1.000000 Au
   Au2419     1.0     0.789655      0.568965      0.403448     Biso  1.000000 Au
   Au2420     1.0     0.789655      0.596551      0.431035     Biso  1.000000 Au
   Au2421     1.0     0.817242      0.568965      0.431035     Biso  1.000000 Au
   Au2422     1.0     0.817242      0.596551      0.403448     Biso  1.000000 Au
   Au2423     1.0     0.844828      0.568965      0.403448     Biso  1.000000 Au
   Au2424     1.0     0.844828      0.596551      0.431035     Biso  1.000000 Au
   Au2425     1.0     0.872413      0.568965      0.431035     Biso  1.000000 Au
   Au2426     1.0     0.872413      0.596551      0.403448     Biso  1.000000 Au
   Au2427     1.0     0.127586      0.624138      0.403448     Biso  1.000000 Au
   Au2428     1.0     0.155171      0.624138      0.431035     Biso  1.000000 Au
   Au2429     1.0     0.155171      0.651725      0.403448     Biso  1.000000 Au
   Au2430     1.0     0.182758      0.624138      0.403448     Biso  1.000000 Au
   Au2431     1.0     0.182758      0.651725      0.431035     Biso  1.000000 Au
   Au2432     1.0     0.210345      0.624138      0.431035     Biso  1.000000 Au
   Au2433     1.0     0.210345      0.651725      0.403448     Biso  1.000000 Au
   Au2434     1.0     0.237930      0.624138      0.403448     Biso  1.000000 Au
   Au2435     1.0     0.237930      0.651725      0.431035     Biso  1.000000 Au
   Au2436     1.0     0.265517      0.624138      0.431035     Biso  1.000000 Au
   Au2437     1.0     0.265517      0.651725      0.403448     Biso  1.000000 Au
   Au2438     1.0     0.293103      0.624138      0.403448     Biso  1.000000 Au
   Au2439     1.0     0.293103      0.651725      0.431035     Biso  1.000000 Au
   Au2440     1.0     0.320690      0.624138      0.431035     Biso  1.000000 Au
   Au2441     1.0     0.320690      0.651725      0.403448     Biso  1.000000 Au
   Au2442     1.0     0.348275      0.624138      0.403448     Biso  1.000000 Au
   Au2443     1.0     0.348275      0.651725      0.431035     Biso  1.000000 Au
   Au2444     1.0     0.375862      0.624138      0.431035     Biso  1.000000 Au
   Au2445     1.0     0.375862      0.651725      0.403448     Biso  1.000000 Au
   Au2446     1.0     0.403448      0.624138      0.403448     Biso  1.000000 Au
   Au2447     1.0     0.403448      0.651725      0.431035     Biso  1.000000 Au
   Au2448     1.0     0.431035      0.624138      0.431035     Biso  1.000000 Au
   Au2449     1.0     0.431035      0.651725      0.403448     Biso  1.000000 Au
   Au2450     1.0     0.458620      0.624138      0.403448     Biso  1.000000 Au
   Au2451     1.0     0.458620      0.651725      0.431035     Biso  1.000000 Au
   Au2452     1.0     0.486207      0.624138      0.431035     Biso  1.000000 Au
   Au2453     1.0     0.486207      0.651725      0.403448     Biso  1.000000 Au
   Au2454     1.0     0.513793      0.624138      0.403448     Biso  1.000000 Au
   Au2455     1.0     0.513793      0.651725      0.431035     Biso  1.000000 Au
   Au2456     1.0     0.541380      0.624138      0.431035     Biso  1.000000 Au
   Au2457     1.0     0.541380      0.651725      0.403448     Biso  1.000000 Au
   Au2458     1.0     0.568965      0.624138      0.403448     Biso  1.000000 Au
   Au2459     1.0     0.568965      0.651725      0.431035     Biso  1.000000 Au
   Au2460     1.0     0.596551      0.624138      0.431035     Biso  1.000000 Au
   Au2461     1.0     0.596551      0.651725      0.403448     Biso  1.000000 Au
   Au2462     1.0     0.624138      0.624138      0.403448     Biso  1.000000 Au
   Au2463     1.0     0.624138      0.651725      0.431035     Biso  1.000000 Au
   Au2464     1.0     0.651725      0.624138      0.431035     Biso  1.000000 Au
   Au2465     1.0     0.651725      0.651725      0.403448     Biso  1.000000 Au
   Au2466     1.0     0.679310      0.624138      0.403448     Biso  1.000000 Au
   Au2467     1.0     0.679310      0.651725      0.431035     Biso  1.000000 Au
   Au2468     1.0     0.706897      0.624138      0.431035     Biso  1.000000 Au
   Au2469     1.0     0.706897      0.651725      0.403448     Biso  1.000000 Au
   Au2470     1.0     0.734483      0.624138      0.403448     Biso  1.000000 Au
   Au2471     1.0     0.734483      0.651725      0.431035     Biso  1.000000 Au
   Au2472     1.0     0.762070      0.624138      0.431035     Biso  1.000000 Au
   Au2473     1.0     0.762070      0.651725      0.403448     Biso  1.000000 Au
   Au2474     1.0     0.789655      0.624138      0.403448     Biso  1.000000 Au
   Au2475     1.0     0.789655      0.651725      0.431035     Biso  1.000000 Au
   Au2476     1.0     0.817242      0.624138      0.431035     Biso  1.000000 Au
   Au2477     1.0     0.817242      0.651725      0.403448     Biso  1.000000 Au
   Au2478     1.0     0.844828      0.624138      0.403448     Biso  1.000000 Au
   Au2479     1.0     0.844828      0.651725      0.431035     Biso  1.000000 Au
   Au2480     1.0     0.872413      0.624138      0.431035     Biso  1.000000 Au
   Au2481     1.0     0.155171      0.679310      0.431035     Biso  1.000000 Au
   Au2482     1.0     0.182758      0.679310      0.403448     Biso  1.000000 Au
   Au2483     1.0     0.182758      0.706897      0.431035     Biso  1.000000 Au
   Au2484     1.0     0.210345      0.679310      0.431035     Biso  1.000000 Au
   Au2485     1.0     0.210345      0.706897      0.403448     Biso  1.000000 Au
   Au2486     1.0     0.237930      0.679310      0.403448     Biso  1.000000 Au
   Au2487     1.0     0.237930      0.706897      0.431035     Biso  1.000000 Au
   Au2488     1.0     0.265517      0.679310      0.431035     Biso  1.000000 Au
   Au2489     1.0     0.265517      0.706897      0.403448     Biso  1.000000 Au
   Au2490     1.0     0.293103      0.679310      0.403448     Biso  1.000000 Au
   Au2491     1.0     0.293103      0.706897      0.431035     Biso  1.000000 Au
   Au2492     1.0     0.320690      0.679310      0.431035     Biso  1.000000 Au
   Au2493     1.0     0.320690      0.706897      0.403448     Biso  1.000000 Au
   Au2494     1.0     0.348275      0.679310      0.403448     Biso  1.000000 Au
   Au2495     1.0     0.348275      0.706897      0.431035     Biso  1.000000 Au
   Au2496     1.0     0.375862      0.679310      0.431035     Biso  1.000000 Au
   Au2497     1.0     0.375862      0.706897      0.403448     Biso  1.000000 Au
   Au2498     1.0     0.403448      0.679310      0.403448     Biso  1.000000 Au
   Au2499     1.0     0.403448      0.706897      0.431035     Biso  1.000000 Au
   Au2500     1.0     0.431035      0.679310      0.431035     Biso  1.000000 Au
   Au2501     1.0     0.431035      0.706897      0.403448     Biso  1.000000 Au
   Au2502     1.0     0.458620      0.679310      0.403448     Biso  1.000000 Au
   Au2503     1.0     0.458620      0.706897      0.431035     Biso  1.000000 Au
   Au2504     1.0     0.486207      0.679310      0.431035     Biso  1.000000 Au
   Au2505     1.0     0.486207      0.706897      0.403448     Biso  1.000000 Au
   Au2506     1.0     0.513793      0.679310      0.403448     Biso  1.000000 Au
   Au2507     1.0     0.513793      0.706897      0.431035     Biso  1.000000 Au
   Au2508     1.0     0.541380      0.679310      0.431035     Biso  1.000000 Au
   Au2509     1.0     0.541380      0.706897      0.403448     Biso  1.000000 Au
   Au2510     1.0     0.568965      0.679310      0.403448     Biso  1.000000 Au
   Au2511     1.0     0.568965      0.706897      0.431035     Biso  1.000000 Au
   Au2512     1.0     0.596551      0.679310      0.431035     Biso  1.000000 Au
   Au2513     1.0     0.596551      0.706897      0.403448     Biso  1.000000 Au
   Au2514     1.0     0.624138      0.679310      0.403448     Biso  1.000000 Au
   Au2515     1.0     0.624138      0.706897      0.431035     Biso  1.000000 Au
   Au2516     1.0     0.651725      0.679310      0.431035     Biso  1.000000 Au
   Au2517     1.0     0.651725      0.706897      0.403448     Biso  1.000000 Au
   Au2518     1.0     0.679310      0.679310      0.403448     Biso  1.000000 Au
   Au2519     1.0     0.679310      0.706897      0.431035     Biso  1.000000 Au
   Au2520     1.0     0.706897      0.679310      0.431035     Biso  1.000000 Au
   Au2521     1.0     0.706897      0.706897      0.403448     Biso  1.000000 Au
   Au2522     1.0     0.734483      0.679310      0.403448     Biso  1.000000 Au
   Au2523     1.0     0.734483      0.706897      0.431035     Biso  1.000000 Au
   Au2524     1.0     0.762070      0.679310      0.431035     Biso  1.000000 Au
   Au2525     1.0     0.762070      0.706897      0.403448     Biso  1.000000 Au
   Au2526     1.0     0.789655      0.679310      0.403448     Biso  1.000000 Au
   Au2527     1.0     0.789655      0.706897      0.431035     Biso  1.000000 Au
   Au2528     1.0     0.817242      0.679310      0.431035     Biso  1.000000 Au
   Au2529     1.0     0.817242      0.706897      0.403448     Biso  1.000000 Au
   Au2530     1.0     0.844828      0.679310      0.403448     Biso  1.000000 Au
   Au2531     1.0     0.210345      0.734483      0.431035     Biso  1.000000 Au
   Au2532     1.0     0.210345      0.762070      0.403448     Biso  1.000000 Au
   Au2533     1.0     0.237930      0.734483      0.403448     Biso  1.000000 Au
   Au2534     1.0     0.237930      0.762070      0.431035     Biso  1.000000 Au
   Au2535     1.0     0.265517      0.734483      0.431035     Biso  1.000000 Au
   Au2536     1.0     0.265517      0.762070      0.403448     Biso  1.000000 Au
   Au2537     1.0     0.293103      0.734483      0.403448     Biso  1.000000 Au
   Au2538     1.0     0.293103      0.762070      0.431035     Biso  1.000000 Au
   Au2539     1.0     0.320690      0.734483      0.431035     Biso  1.000000 Au
   Au2540     1.0     0.320690      0.762070      0.403448     Biso  1.000000 Au
   Au2541     1.0     0.348275      0.734483      0.403448     Biso  1.000000 Au
   Au2542     1.0     0.348275      0.762070      0.431035     Biso  1.000000 Au
   Au2543     1.0     0.375862      0.734483      0.431035     Biso  1.000000 Au
   Au2544     1.0     0.375862      0.762070      0.403448     Biso  1.000000 Au
   Au2545     1.0     0.403448      0.734483      0.403448     Biso  1.000000 Au
   Au2546     1.0     0.403448      0.762070      0.431035     Biso  1.000000 Au
   Au2547     1.0     0.431035      0.734483      0.431035     Biso  1.000000 Au
   Au2548     1.0     0.431035      0.762070      0.403448     Biso  1.000000 Au
   Au2549     1.0     0.458620      0.734483      0.403448     Biso  1.000000 Au
   Au2550     1.0     0.458620      0.762070      0.431035     Biso  1.000000 Au
   Au2551     1.0     0.486207      0.734483      0.431035     Biso  1.000000 Au
   Au2552     1.0     0.486207      0.762070      0.403448     Biso  1.000000 Au
   Au2553     1.0     0.513793      0.734483      0.403448     Biso  1.000000 Au
   Au2554     1.0     0.513793      0.762070      0.431035     Biso  1.000000 Au
   Au2555     1.0     0.541380      0.734483      0.431035     Biso  1.000000 Au
   Au2556     1.0     0.541380      0.762070      0.403448     Biso  1.000000 Au
   Au2557     1.0     0.568965      0.734483      0.403448     Biso  1.000000 Au
   Au2558     1.0     0.568965      0.762070      0.431035     Biso  1.000000 Au
   Au2559     1.0     0.596551      0.734483      0.431035     Biso  1.000000 Au
   Au2560     1.0     0.596551      0.762070      0.403448     Biso  1.000000 Au
   Au2561     1.0     0.624138      0.734483      0.403448     Biso  1.000000 Au
   Au2562     1.0     0.624138      0.762070      0.431035     Biso  1.000000 Au
   Au2563     1.0     0.651725      0.734483      0.431035     Biso  1.000000 Au
   Au2564     1.0     0.651725      0.762070      0.403448     Biso  1.000000 Au
   Au2565     1.0     0.679310      0.734483      0.403448     Biso  1.000000 Au
   Au2566     1.0     0.679310      0.762070      0.431035     Biso  1.000000 Au
   Au2567     1.0     0.706897      0.734483      0.431035     Biso  1.000000 Au
   Au2568     1.0     0.706897      0.762070      0.403448     Biso  1.000000 Au
   Au2569     1.0     0.734483      0.734483      0.403448     Biso  1.000000 Au
   Au2570     1.0     0.734483      0.762070      0.431035     Biso  1.000000 Au
   Au2571     1.0     0.762070      0.734483      0.431035     Biso  1.000000 Au
   Au2572     1.0     0.762070      0.762070      0.403448     Biso  1.000000 Au
   Au2573     1.0     0.789655      0.734483      0.403448     Biso  1.000000 Au
   Au2574     1.0     0.789655      0.762070      0.431035     Biso  1.000000 Au
   Au2575     1.0     0.817242      0.734483      0.431035     Biso  1.000000 Au
   Au2576     1.0     0.237930      0.789655      0.403448     Biso  1.000000 Au
   Au2577     1.0     0.265517      0.789655      0.431035     Biso  1.000000 Au
   Au2578     1.0     0.293103      0.789655      0.403448     Biso  1.000000 Au
   Au2579     1.0     0.293103      0.817242      0.431035     Biso  1.000000 Au
   Au2580     1.0     0.320690      0.789655      0.431035     Biso  1.000000 Au
   Au2581     1.0     0.320690      0.817242      0.403448     Biso  1.000000 Au
   Au2582     1.0     0.348275      0.789655      0.403448     Biso  1.000000 Au
   Au2583     1.0     0.348275      0.817242      0.431035     Biso  1.000000 Au
   Au2584     1.0     0.375862      0.789655      0.431035     Biso  1.000000 Au
   Au2585     1.0     0.375862      0.817242      0.403448     Biso  1.000000 Au
   Au2586     1.0     0.403448      0.789655      0.403448     Biso  1.000000 Au
   Au2587     1.0     0.403448      0.817242      0.431035     Biso  1.000000 Au
   Au2588     1.0     0.431035      0.789655      0.431035     Biso  1.000000 Au
   Au2589     1.0     0.431035      0.817242      0.403448     Biso  1.000000 Au
   Au2590     1.0     0.458620      0.789655      0.403448     Biso  1.000000 Au
   Au2591     1.0     0.458620      0.817242      0.431035     Biso  1.000000 Au
   Au2592     1.0     0.486207      0.789655      0.431035     Biso  1.000000 Au
   Au2593     1.0     0.486207      0.817242      0.403448     Biso  1.000000 Au
   Au2594     1.0     0.513793      0.789655      0.403448     Biso  1.000000 Au
   Au2595     1.0     0.513793      0.817242      0.431035     Biso  1.000000 Au
   Au2596     1.0     0.541380      0.789655      0.431035     Biso  1.000000 Au
   Au2597     1.0     0.541380      0.817242      0.403448     Biso  1.000000 Au
   Au2598     1.0     0.568965      0.789655      0.403448     Biso  1.000000 Au
   Au2599     1.0     0.568965      0.817242      0.431035     Biso  1.000000 Au
   Au2600     1.0     0.596551      0.789655      0.431035     Biso  1.000000 Au
   Au2601     1.0     0.596551      0.817242      0.403448     Biso  1.000000 Au
   Au2602     1.0     0.624138      0.789655      0.403448     Biso  1.000000 Au
   Au2603     1.0     0.624138      0.817242      0.431035     Biso  1.000000 Au
   Au2604     1.0     0.651725      0.789655      0.431035     Biso  1.000000 Au
   Au2605     1.0     0.651725      0.817242      0.403448     Biso  1.000000 Au
   Au2606     1.0     0.679310      0.789655      0.403448     Biso  1.000000 Au
   Au2607     1.0     0.679310      0.817242      0.431035     Biso  1.000000 Au
   Au2608     1.0     0.706897      0.789655      0.431035     Biso  1.000000 Au
   Au2609     1.0     0.706897      0.817242      0.403448     Biso  1.000000 Au
   Au2610     1.0     0.734483      0.789655      0.403448     Biso  1.000000 Au
   Au2611     1.0     0.734483      0.817242      0.431035     Biso  1.000000 Au
   Au2612     1.0     0.762070      0.789655      0.431035     Biso  1.000000 Au
   Au2613     1.0     0.320690      0.844828      0.431035     Biso  1.000000 Au
   Au2614     1.0     0.348275      0.844828      0.403448     Biso  1.000000 Au
   Au2615     1.0     0.375862      0.844828      0.431035     Biso  1.000000 Au
   Au2616     1.0     0.375862      0.872413      0.403448     Biso  1.000000 Au
   Au2617     1.0     0.403448      0.844828      0.403448     Biso  1.000000 Au
   Au2618     1.0     0.403448      0.872413      0.431035     Biso  1.000000 Au
   Au2619     1.0     0.431035      0.844828      0.431035     Biso  1.000000 Au
   Au2620     1.0     0.431035      0.872413      0.403448     Biso  1.000000 Au
   Au2621     1.0     0.458620      0.844828      0.403448     Biso  1.000000 Au
   Au2622     1.0     0.458620      0.872413      0.431035     Biso  1.000000 Au
   Au2623     1.0     0.486207      0.844828      0.431035     Biso  1.000000 Au
   Au2624     1.0     0.486207      0.872413      0.403448     Biso  1.000000 Au
   Au2625     1.0     0.513793      0.844828      0.403448     Biso  1.000000 Au
   Au2626     1.0     0.513793      0.872413      0.431035     Biso  1.000000 Au
   Au2627     1.0     0.541380      0.844828      0.431035     Biso  1.000000 Au
   Au2628     1.0     0.541380      0.872413      0.403448     Biso  1.000000 Au
   Au2629     1.0     0.568965      0.844828      0.403448     Biso  1.000000 Au
   Au2630     1.0     0.568965      0.872413      0.431035     Biso  1.000000 Au
   Au2631     1.0     0.596551      0.844828      0.431035     Biso  1.000000 Au
   Au2632     1.0     0.596551      0.872413      0.403448     Biso  1.000000 Au
   Au2633     1.0     0.624138      0.844828      0.403448     Biso  1.000000 Au
   Au2634     1.0     0.624138      0.872413      0.431035     Biso  1.000000 Au
   Au2635     1.0     0.651725      0.844828      0.431035     Biso  1.000000 Au
   Au2636     1.0     0.679310      0.844828      0.403448     Biso  1.000000 Au
   Au2637     1.0     0.458620      0.100000      0.486207     Biso  1.000000 Au
   Au2638     1.0     0.486207      0.100000      0.458620     Biso  1.000000 Au
   Au2639     1.0     0.513793      0.100000      0.486207     Biso  1.000000 Au
   Au2640     1.0     0.541380      0.100000      0.458620     Biso  1.000000 Au
   Au2641     1.0     0.293103      0.155171      0.486207     Biso  1.000000 Au
   Au2642     1.0     0.320690      0.155171      0.458620     Biso  1.000000 Au
   Au2643     1.0     0.348275      0.127586      0.458620     Biso  1.000000 Au
   Au2644     1.0     0.348275      0.155171      0.486207     Biso  1.000000 Au
   Au2645     1.0     0.375862      0.127586      0.486207     Biso  1.000000 Au
   Au2646     1.0     0.375862      0.155171      0.458620     Biso  1.000000 Au
   Au2647     1.0     0.403448      0.127586      0.458620     Biso  1.000000 Au
   Au2648     1.0     0.403448      0.155171      0.486207     Biso  1.000000 Au
   Au2649     1.0     0.431035      0.127586      0.486207     Biso  1.000000 Au
   Au2650     1.0     0.431035      0.155171      0.458620     Biso  1.000000 Au
   Au2651     1.0     0.458620      0.127586      0.458620     Biso  1.000000 Au
   Au2652     1.0     0.458620      0.155171      0.486207     Biso  1.000000 Au
   Au2653     1.0     0.486207      0.127586      0.486207     Biso  1.000000 Au
   Au2654     1.0     0.486207      0.155171      0.458620     Biso  1.000000 Au
   Au2655     1.0     0.513793      0.127586      0.458620     Biso  1.000000 Au
   Au2656     1.0     0.513793      0.155171      0.486207     Biso  1.000000 Au
   Au2657     1.0     0.541380      0.127586      0.486207     Biso  1.000000 Au
   Au2658     1.0     0.541380      0.155171      0.458620     Biso  1.000000 Au
   Au2659     1.0     0.568965      0.127586      0.458620     Biso  1.000000 Au
   Au2660     1.0     0.568965      0.155171      0.486207     Biso  1.000000 Au
   Au2661     1.0     0.596551      0.127586      0.486207     Biso  1.000000 Au
   Au2662     1.0     0.596551      0.155171      0.458620     Biso  1.000000 Au
   Au2663     1.0     0.624138      0.127586      0.458620     Biso  1.000000 Au
   Au2664     1.0     0.624138      0.155171      0.486207     Biso  1.000000 Au
   Au2665     1.0     0.651725      0.127586      0.486207     Biso  1.000000 Au
   Au2666     1.0     0.651725      0.155171      0.458620     Biso  1.000000 Au
   Au2667     1.0     0.679310      0.155171      0.486207     Biso  1.000000 Au
   Au2668     1.0     0.706897      0.155171      0.458620     Biso  1.000000 Au
   Au2669     1.0     0.237930      0.210345      0.486207     Biso  1.000000 Au
   Au2670     1.0     0.265517      0.182758      0.486207     Biso  1.000000 Au
   Au2671     1.0     0.265517      0.210345      0.458620     Biso  1.000000 Au
   Au2672     1.0     0.293103      0.182758      0.458620     Biso  1.000000 Au
   Au2673     1.0     0.293103      0.210345      0.486207     Biso  1.000000 Au
   Au2674     1.0     0.320690      0.182758      0.486207     Biso  1.000000 Au
   Au2675     1.0     0.320690      0.210345      0.458620     Biso  1.000000 Au
   Au2676     1.0     0.348275      0.182758      0.458620     Biso  1.000000 Au
   Au2677     1.0     0.348275      0.210345      0.486207     Biso  1.000000 Au
   Au2678     1.0     0.375862      0.182758      0.486207     Biso  1.000000 Au
   Au2679     1.0     0.375862      0.210345      0.458620     Biso  1.000000 Au
   Au2680     1.0     0.403448      0.182758      0.458620     Biso  1.000000 Au
   Au2681     1.0     0.403448      0.210345      0.486207     Biso  1.000000 Au
   Au2682     1.0     0.431035      0.182758      0.486207     Biso  1.000000 Au
   Au2683     1.0     0.431035      0.210345      0.458620     Biso  1.000000 Au
   Au2684     1.0     0.458620      0.182758      0.458620     Biso  1.000000 Au
   Au2685     1.0     0.458620      0.210345      0.486207     Biso  1.000000 Au
   Au2686     1.0     0.486207      0.182758      0.486207     Biso  1.000000 Au
   Au2687     1.0     0.486207      0.210345      0.458620     Biso  1.000000 Au
   Au2688     1.0     0.513793      0.182758      0.458620     Biso  1.000000 Au
   Au2689     1.0     0.513793      0.210345      0.486207     Biso  1.000000 Au
   Au2690     1.0     0.541380      0.182758      0.486207     Biso  1.000000 Au
   Au2691     1.0     0.541380      0.210345      0.458620     Biso  1.000000 Au
   Au2692     1.0     0.568965      0.182758      0.458620     Biso  1.000000 Au
   Au2693     1.0     0.568965      0.210345      0.486207     Biso  1.000000 Au
   Au2694     1.0     0.596551      0.182758      0.486207     Biso  1.000000 Au
   Au2695     1.0     0.596551      0.210345      0.458620     Biso  1.000000 Au
   Au2696     1.0     0.624138      0.182758      0.458620     Biso  1.000000 Au
   Au2697     1.0     0.624138      0.210345      0.486207     Biso  1.000000 Au
   Au2698     1.0     0.651725      0.182758      0.486207     Biso  1.000000 Au
   Au2699     1.0     0.651725      0.210345      0.458620     Biso  1.000000 Au
   Au2700     1.0     0.679310      0.182758      0.458620     Biso  1.000000 Au
   Au2701     1.0     0.679310      0.210345      0.486207     Biso  1.000000 Au
   Au2702     1.0     0.706897      0.182758      0.486207     Biso  1.000000 Au
   Au2703     1.0     0.706897      0.210345      0.458620     Biso  1.000000 Au
   Au2704     1.0     0.734483      0.182758      0.458620     Biso  1.000000 Au
   Au2705     1.0     0.734483      0.210345      0.486207     Biso  1.000000 Au
   Au2706     1.0     0.762070      0.210345      0.458620     Biso  1.000000 Au
   Au2707     1.0     0.182758      0.265517      0.486207     Biso  1.000000 Au
   Au2708     1.0     0.210345      0.237930      0.486207     Biso  1.000000 Au
   Au2709     1.0     0.210345      0.265517      0.458620     Biso  1.000000 Au
   Au2710     1.0     0.237930      0.237930      0.458620     Biso  1.000000 Au
   Au2711     1.0     0.237930      0.265517      0.486207     Biso  1.000000 Au
   Au2712     1.0     0.265517      0.237930      0.486207     Biso  1.000000 Au
   Au2713     1.0     0.265517      0.265517      0.458620     Biso  1.000000 Au
   Au2714     1.0     0.293103      0.237930      0.458620     Biso  1.000000 Au
   Au2715     1.0     0.293103      0.265517      0.486207     Biso  1.000000 Au
   Au2716     1.0     0.320690      0.237930      0.486207     Biso  1.000000 Au
   Au2717     1.0     0.320690      0.265517      0.458620     Biso  1.000000 Au
   Au2718     1.0     0.348275      0.237930      0.458620     Biso  1.000000 Au
   Au2719     1.0     0.348275      0.265517      0.486207     Biso  1.000000 Au
   Au2720     1.0     0.375862      0.237930      0.486207     Biso  1.000000 Au
   Au2721     1.0     0.375862      0.265517      0.458620     Biso  1.000000 Au
   Au2722     1.0     0.403448      0.237930      0.458620     Biso  1.000000 Au
   Au2723     1.0     0.403448      0.265517      0.486207     Biso  1.000000 Au
   Au2724     1.0     0.431035      0.237930      0.486207     Biso  1.000000 Au
   Au2725     1.0     0.431035      0.265517      0.458620     Biso  1.000000 Au
   Au2726     1.0     0.458620      0.237930      0.458620     Biso  1.000000 Au
   Au2727     1.0     0.458620      0.265517      0.486207     Biso  1.000000 Au
   Au2728     1.0     0.486207      0.237930      0.486207     Biso  1.000000 Au
   Au2729     1.0     0.486207      0.265517      0.458620     Biso  1.000000 Au
   Au2730     1.0     0.513793      0.237930      0.458620     Biso  1.000000 Au
   Au2731     1.0     0.513793      0.265517      0.486207     Biso  1.000000 Au
   Au2732     1.0     0.541380      0.237930      0.486207     Biso  1.000000 Au
   Au2733     1.0     0.541380      0.265517      0.458620     Biso  1.000000 Au
   Au2734     1.0     0.568965      0.237930      0.458620     Biso  1.000000 Au
   Au2735     1.0     0.568965      0.265517      0.486207     Biso  1.000000 Au
   Au2736     1.0     0.596551      0.237930      0.486207     Biso  1.000000 Au
   Au2737     1.0     0.596551      0.265517      0.458620     Biso  1.000000 Au
   Au2738     1.0     0.624138      0.237930      0.458620     Biso  1.000000 Au
   Au2739     1.0     0.624138      0.265517      0.486207     Biso  1.000000 Au
   Au2740     1.0     0.651725      0.237930      0.486207     Biso  1.000000 Au
   Au2741     1.0     0.651725      0.265517      0.458620     Biso  1.000000 Au
   Au2742     1.0     0.679310      0.237930      0.458620     Biso  1.000000 Au
   Au2743     1.0     0.679310      0.265517      0.486207     Biso  1.000000 Au
   Au2744     1.0     0.706897      0.237930      0.486207     Biso  1.000000 Au
   Au2745     1.0     0.706897      0.265517      0.458620     Biso  1.000000 Au
   Au2746     1.0     0.734483      0.237930      0.458620     Biso  1.000000 Au
   Au2747     1.0     0.734483      0.265517      0.486207     Biso  1.000000 Au
   Au2748     1.0     0.762070      0.237930      0.486207     Biso  1.000000 Au
   Au2749     1.0     0.762070      0.265517      0.458620     Biso  1.000000 Au
   Au2750     1.0     0.789655      0.237930      0.458620     Biso  1.000000 Au
   Au2751     1.0     0.789655      0.265517      0.486207     Biso  1.000000 Au
   Au2752     1.0     0.817242      0.265517      0.458620     Biso  1.000000 Au
   Au2753     1.0     0.155171      0.293103      0.486207     Biso  1.000000 Au
   Au2754     1.0     0.155171      0.320690      0.458620     Biso  1.000000 Au
   Au2755     1.0     0.182758      0.293103      0.458620     Biso  1.000000 Au
   Au2756     1.0     0.182758      0.320690      0.486207     Biso  1.000000 Au
   Au2757     1.0     0.210345      0.293103      0.486207     Biso  1.000000 Au
   Au2758     1.0     0.210345      0.320690      0.458620     Biso  1.000000 Au
   Au2759     1.0     0.237930      0.293103      0.458620     Biso  1.000000 Au
   Au2760     1.0     0.237930      0.320690      0.486207     Biso  1.000000 Au
   Au2761     1.0     0.265517      0.293103      0.486207     Biso  1.000000 Au
   Au2762     1.0     0.265517      0.320690      0.458620     Biso  1.000000 Au
   Au2763     1.0     0.293103      0.293103      0.458620     Biso  1.000000 Au
   Au2764     1.0     0.293103      0.320690      0.486207     Biso  1.000000 Au
   Au2765     1.0     0.320690      0.293103      0.486207     Biso  1.000000 Au
   Au2766     1.0     0.320690      0.320690      0.458620     Biso  1.000000 Au
   Au2767     1.0     0.348275      0.293103      0.458620     Biso  1.000000 Au
   Au2768     1.0     0.348275      0.320690      0.486207     Biso  1.000000 Au
   Au2769     1.0     0.375862      0.293103      0.486207     Biso  1.000000 Au
   Au2770     1.0     0.375862      0.320690      0.458620     Biso  1.000000 Au
   Au2771     1.0     0.403448      0.293103      0.458620     Biso  1.000000 Au
   Au2772     1.0     0.403448      0.320690      0.486207     Biso  1.000000 Au
   Au2773     1.0     0.431035      0.293103      0.486207     Biso  1.000000 Au
   Au2774     1.0     0.431035      0.320690      0.458620     Biso  1.000000 Au
   Au2775     1.0     0.458620      0.293103      0.458620     Biso  1.000000 Au
   Au2776     1.0     0.458620      0.320690      0.486207     Biso  1.000000 Au
   Au2777     1.0     0.486207      0.293103      0.486207     Biso  1.000000 Au
   Au2778     1.0     0.486207      0.320690      0.458620     Biso  1.000000 Au
   Au2779     1.0     0.513793      0.293103      0.458620     Biso  1.000000 Au
   Au2780     1.0     0.513793      0.320690      0.486207     Biso  1.000000 Au
   Au2781     1.0     0.541380      0.293103      0.486207     Biso  1.000000 Au
   Au2782     1.0     0.541380      0.320690      0.458620     Biso  1.000000 Au
   Au2783     1.0     0.568965      0.293103      0.458620     Biso  1.000000 Au
   Au2784     1.0     0.568965      0.320690      0.486207     Biso  1.000000 Au
   Au2785     1.0     0.596551      0.293103      0.486207     Biso  1.000000 Au
   Au2786     1.0     0.596551      0.320690      0.458620     Biso  1.000000 Au
   Au2787     1.0     0.624138      0.293103      0.458620     Biso  1.000000 Au
   Au2788     1.0     0.624138      0.320690      0.486207     Biso  1.000000 Au
   Au2789     1.0     0.651725      0.293103      0.486207     Biso  1.000000 Au
   Au2790     1.0     0.651725      0.320690      0.458620     Biso  1.000000 Au
   Au2791     1.0     0.679310      0.293103      0.458620     Biso  1.000000 Au
   Au2792     1.0     0.679310      0.320690      0.486207     Biso  1.000000 Au
   Au2793     1.0     0.706897      0.293103      0.486207     Biso  1.000000 Au
   Au2794     1.0     0.706897      0.320690      0.458620     Biso  1.000000 Au
   Au2795     1.0     0.734483      0.293103      0.458620     Biso  1.000000 Au
   Au2796     1.0     0.734483      0.320690      0.486207     Biso  1.000000 Au
   Au2797     1.0     0.762070      0.293103      0.486207     Biso  1.000000 Au
   Au2798     1.0     0.762070      0.320690      0.458620     Biso  1.000000 Au
   Au2799     1.0     0.789655      0.293103      0.458620     Biso  1.000000 Au
   Au2800     1.0     0.789655      0.320690      0.486207     Biso  1.000000 Au
   Au2801     1.0     0.817242      0.293103      0.486207     Biso  1.000000 Au
   Au2802     1.0     0.817242      0.320690      0.458620     Biso  1.000000 Au
   Au2803     1.0     0.844828      0.293103      0.458620     Biso  1.000000 Au
   Au2804     1.0     0.844828      0.320690      0.486207     Biso  1.000000 Au
   Au2805     1.0     0.127586      0.348275      0.458620     Biso  1.000000 Au
   Au2806     1.0     0.127586      0.375862      0.486207     Biso  1.000000 Au
   Au2807     1.0     0.155171      0.348275      0.486207     Biso  1.000000 Au
   Au2808     1.0     0.155171      0.375862      0.458620     Biso  1.000000 Au
   Au2809     1.0     0.182758      0.348275      0.458620     Biso  1.000000 Au
   Au2810     1.0     0.182758      0.375862      0.486207     Biso  1.000000 Au
   Au2811     1.0     0.210345      0.348275      0.486207     Biso  1.000000 Au
   Au2812     1.0     0.210345      0.375862      0.458620     Biso  1.000000 Au
   Au2813     1.0     0.237930      0.348275      0.458620     Biso  1.000000 Au
   Au2814     1.0     0.237930      0.375862      0.486207     Biso  1.000000 Au
   Au2815     1.0     0.265517      0.348275      0.486207     Biso  1.000000 Au
   Au2816     1.0     0.265517      0.375862      0.458620     Biso  1.000000 Au
   Au2817     1.0     0.293103      0.348275      0.458620     Biso  1.000000 Au
   Au2818     1.0     0.293103      0.375862      0.486207     Biso  1.000000 Au
   Au2819     1.0     0.320690      0.348275      0.486207     Biso  1.000000 Au
   Au2820     1.0     0.320690      0.375862      0.458620     Biso  1.000000 Au
   Au2821     1.0     0.348275      0.348275      0.458620     Biso  1.000000 Au
   Au2822     1.0     0.348275      0.375862      0.486207     Biso  1.000000 Au
   Au2823     1.0     0.375862      0.348275      0.486207     Biso  1.000000 Au
   Au2824     1.0     0.375862      0.375862      0.458620     Biso  1.000000 Au
   Au2825     1.0     0.403448      0.348275      0.458620     Biso  1.000000 Au
   Au2826     1.0     0.403448      0.375862      0.486207     Biso  1.000000 Au
   Au2827     1.0     0.431035      0.348275      0.486207     Biso  1.000000 Au
   Au2828     1.0     0.431035      0.375862      0.458620     Biso  1.000000 Au
   Au2829     1.0     0.458620      0.348275      0.458620     Biso  1.000000 Au
   Au2830     1.0     0.458620      0.375862      0.486207     Biso  1.000000 Au
   Au2831     1.0     0.486207      0.348275      0.486207     Biso  1.000000 Au
   Au2832     1.0     0.486207      0.375862      0.458620     Biso  1.000000 Au
   Au2833     1.0     0.513793      0.348275      0.458620     Biso  1.000000 Au
   Au2834     1.0     0.513793      0.375862      0.486207     Biso  1.000000 Au
   Au2835     1.0     0.541380      0.348275      0.486207     Biso  1.000000 Au
   Au2836     1.0     0.541380      0.375862      0.458620     Biso  1.000000 Au
   Au2837     1.0     0.568965      0.348275      0.458620     Biso  1.000000 Au
   Au2838     1.0     0.568965      0.375862      0.486207     Biso  1.000000 Au
   Au2839     1.0     0.596551      0.348275      0.486207     Biso  1.000000 Au
   Au2840     1.0     0.596551      0.375862      0.458620     Biso  1.000000 Au
   Au2841     1.0     0.624138      0.348275      0.458620     Biso  1.000000 Au
   Au2842     1.0     0.624138      0.375862      0.486207     Biso  1.000000 Au
   Au2843     1.0     0.651725      0.348275      0.486207     Biso  1.000000 Au
   Au2844     1.0     0.651725      0.375862      0.458620     Biso  1.000000 Au
   Au2845     1.0     0.679310      0.348275      0.458620     Biso  1.000000 Au
   Au2846     1.0     0.679310      0.375862      0.486207     Biso  1.000000 Au
   Au2847     1.0     0.706897      0.348275      0.486207     Biso  1.000000 Au
   Au2848     1.0     0.706897      0.375862      0.458620     Biso  1.000000 Au
   Au2849     1.0     0.734483      0.348275      0.458620     Biso  1.000000 Au
   Au2850     1.0     0.734483      0.375862      0.486207     Biso  1.000000 Au
   Au2851     1.0     0.762070      0.348275      0.486207     Biso  1.000000 Au
   Au2852     1.0     0.762070      0.375862      0.458620     Biso  1.000000 Au
   Au2853     1.0     0.789655      0.348275      0.458620     Biso  1.000000 Au
   Au2854     1.0     0.789655      0.375862      0.486207     Biso  1.000000 Au
   Au2855     1.0     0.817242      0.348275      0.486207     Biso  1.000000 Au
   Au2856     1.0     0.817242      0.375862      0.458620     Biso  1.000000 Au
   Au2857     1.0     0.844828      0.348275      0.458620     Biso  1.000000 Au
   Au2858     1.0     0.844828      0.375862      0.486207     Biso  1.000000 Au
   Au2859     1.0     0.872413      0.348275      0.486207     Biso  1.000000 Au
   Au2860     1.0     0.872413      0.375862      0.458620     Biso  1.000000 Au
   Au2861     1.0     0.127586      0.403448      0.458620     Biso  1.000000 Au
   Au2862     1.0     0.127586      0.431035      0.486207     Biso  1.000000 Au
   Au2863     1.0     0.155171      0.403448      0.486207     Biso  1.000000 Au
   Au2864     1.0     0.155171      0.431035      0.458620     Biso  1.000000 Au
   Au2865     1.0     0.182758      0.403448      0.458620     Biso  1.000000 Au
   Au2866     1.0     0.182758      0.431035      0.486207     Biso  1.000000 Au
   Au2867     1.0     0.210345      0.403448      0.486207     Biso  1.000000 Au
   Au2868     1.0     0.210345      0.431035      0.458620     Biso  1.000000 Au
   Au2869     1.0     0.237930      0.403448      0.458620     Biso  1.000000 Au
   Au2870     1.0     0.237930      0.431035      0.486207     Biso  1.000000 Au
   Au2871     1.0     0.265517      0.403448      0.486207     Biso  1.000000 Au
   Au2872     1.0     0.265517      0.431035      0.458620     Biso  1.000000 Au
   Au2873     1.0     0.293103      0.403448      0.458620     Biso  1.000000 Au
   Au2874     1.0     0.293103      0.431035      0.486207     Biso  1.000000 Au
   Au2875     1.0     0.320690      0.403448      0.486207     Biso  1.000000 Au
   Au2876     1.0     0.320690      0.431035      0.458620     Biso  1.000000 Au
   Au2877     1.0     0.348275      0.403448      0.458620     Biso  1.000000 Au
   Au2878     1.0     0.348275      0.431035      0.486207     Biso  1.000000 Au
   Au2879     1.0     0.375862      0.403448      0.486207     Biso  1.000000 Au
   Au2880     1.0     0.375862      0.431035      0.458620     Biso  1.000000 Au
   Au2881     1.0     0.403448      0.403448      0.458620     Biso  1.000000 Au
   Au2882     1.0     0.403448      0.431035      0.486207     Biso  1.000000 Au
   Au2883     1.0     0.431035      0.403448      0.486207     Biso  1.000000 Au
   Au2884     1.0     0.431035      0.431035      0.458620     Biso  1.000000 Au
   Au2885     1.0     0.458620      0.403448      0.458620     Biso  1.000000 Au
   Au2886     1.0     0.458620      0.431035      0.486207     Biso  1.000000 Au
   Au2887     1.0     0.486207      0.403448      0.486207     Biso  1.000000 Au
   Au2888     1.0     0.486207      0.431035      0.458620     Biso  1.000000 Au
   Au2889     1.0     0.513793      0.403448      0.458620     Biso  1.000000 Au
   Au2890     1.0     0.513793      0.431035      0.486207     Biso  1.000000 Au
   Au2891     1.0     0.541380      0.403448      0.486207     Biso  1.000000 Au
   Au2892     1.0     0.541380      0.431035      0.458620     Biso  1.000000 Au
   Au2893     1.0     0.568965      0.403448      0.458620     Biso  1.000000 Au
   Au2894     1.0     0.568965      0.431035      0.486207     Biso  1.000000 Au
   Au2895     1.0     0.596551      0.403448      0.486207     Biso  1.000000 Au
   Au2896     1.0     0.596551      0.431035      0.458620     Biso  1.000000 Au
   Au2897     1.0     0.624138      0.403448      0.458620     Biso  1.000000 Au
   Au2898     1.0     0.624138      0.431035      0.486207     Biso  1.000000 Au
   Au2899     1.0     0.651725      0.403448      0.486207     Biso  1.000000 Au
   Au2900     1.0     0.651725      0.431035      0.458620     Biso  1.000000 Au
   Au2901     1.0     0.679310      0.403448      0.458620     Biso  1.000000 Au
   Au2902     1.0     0.679310      0.431035      0.486207     Biso  1.000000 Au
   Au2903     1.0     0.706897      0.403448      0.486207     Biso  1.000000 Au
   Au2904     1.0     0.706897      0.431035      0.458620     Biso  1.000000 Au
   Au2905     1.0     0.734483      0.403448      0.458620     Biso  1.000000 Au
   Au2906     1.0     0.734483      0.431035      0.486207     Biso  1.000000 Au
   Au2907     1.0     0.762070      0.403448      0.486207     Biso  1.000000 Au
   Au2908     1.0     0.762070      0.431035      0.458620     Biso  1.000000 Au
   Au2909     1.0     0.789655      0.403448      0.458620     Biso  1.000000 Au
   Au2910     1.0     0.789655      0.431035      0.486207     Biso  1.000000 Au
   Au2911     1.0     0.817242      0.403448      0.486207     Biso  1.000000 Au
   Au2912     1.0     0.817242      0.431035      0.458620     Biso  1.000000 Au
   Au2913     1.0     0.844828      0.403448      0.458620     Biso  1.000000 Au
   Au2914     1.0     0.844828      0.431035      0.486207     Biso  1.000000 Au
   Au2915     1.0     0.872413      0.403448      0.486207     Biso  1.000000 Au
   Au2916     1.0     0.872413      0.431035      0.458620     Biso  1.000000 Au
   Au2917     1.0     0.100000      0.458620      0.486207     Biso  1.000000 Au
   Au2918     1.0     0.100000      0.486207      0.458620     Biso  1.000000 Au
   Au2919     1.0     0.127586      0.458620      0.458620     Biso  1.000000 Au
   Au2920     1.0     0.127586      0.486207      0.486207     Biso  1.000000 Au
   Au2921     1.0     0.155171      0.458620      0.486207     Biso  1.000000 Au
   Au2922     1.0     0.155171      0.486207      0.458620     Biso  1.000000 Au
   Au2923     1.0     0.182758      0.458620      0.458620     Biso  1.000000 Au
   Au2924     1.0     0.182758      0.486207      0.486207     Biso  1.000000 Au
   Au2925     1.0     0.210345      0.458620      0.486207     Biso  1.000000 Au
   Au2926     1.0     0.210345      0.486207      0.458620     Biso  1.000000 Au
   Au2927     1.0     0.237930      0.458620      0.458620     Biso  1.000000 Au
   Au2928     1.0     0.237930      0.486207      0.486207     Biso  1.000000 Au
   Au2929     1.0     0.265517      0.458620      0.486207     Biso  1.000000 Au
   Au2930     1.0     0.265517      0.486207      0.458620     Biso  1.000000 Au
   Au2931     1.0     0.293103      0.458620      0.458620     Biso  1.000000 Au
   Au2932     1.0     0.293103      0.486207      0.486207     Biso  1.000000 Au
   Au2933     1.0     0.320690      0.458620      0.486207     Biso  1.000000 Au
   Au2934     1.0     0.320690      0.486207      0.458620     Biso  1.000000 Au
   Au2935     1.0     0.348275      0.458620      0.458620     Biso  1.000000 Au
   Au2936     1.0     0.348275      0.486207      0.486207     Biso  1.000000 Au
   Au2937     1.0     0.375862      0.458620      0.486207     Biso  1.000000 Au
   Au2938     1.0     0.375862      0.486207      0.458620     Biso  1.000000 Au
   Au2939     1.0     0.403448      0.458620      0.458620     Biso  1.000000 Au
   Au2940     1.0     0.403448      0.486207      0.486207     Biso  1.000000 Au
   Au2941     1.0     0.431035      0.458620      0.486207     Biso  1.000000 Au
   Au2942     1.0     0.431035      0.486207      0.458620     Biso  1.000000 Au
   Au2943     1.0     0.458620      0.458620      0.458620     Biso  1.000000 Au
   Au2944     1.0     0.458620      0.486207      0.486207     Biso  1.000000 Au
   Au2945     1.0     0.486207      0.458620      0.486207     Biso  1.000000 Au
   Au2946     1.0     0.486207      0.486207      0.458620     Biso  1.000000 Au
   Au2947     1.0     0.513793      0.458620      0.458620     Biso  1.000000 Au
   Au2948     1.0     0.513793      0.486207      0.486207     Biso  1.000000 Au
   Au2949     1.0     0.541380      0.458620      0.486207     Biso  1.000000 Au
   Au2950     1.0     0.541380      0.486207      0.458620     Biso  1.000000 Au
   Au2951     1.0     0.568965      0.458620      0.458620     Biso  1.000000 Au
   Au2952     1.0     0.568965      0.486207      0.486207     Biso  1.000000 Au
   Au2953     1.0     0.596551      0.458620      0.486207     Biso  1.000000 Au
   Au2954     1.0     0.596551      0.486207      0.458620     Biso  1.000000 Au
   Au2955     1.0     0.624138      0.458620      0.458620     Biso  1.000000 Au
   Au2956     1.0     0.624138      0.486207      0.486207     Biso  1.000000 Au
   Au2957     1.0     0.651725      0.458620      0.486207     Biso  1.000000 Au
   Au2958     1.0     0.651725      0.486207      0.458620     Biso  1.000000 Au
   Au2959     1.0     0.679310      0.458620      0.458620     Biso  1.000000 Au
   Au2960     1.0     0.679310      0.486207      0.486207     Biso  1.000000 Au
   Au2961     1.0     0.706897      0.458620      0.486207     Biso  1.000000 Au
   Au2962     1.0     0.706897      0.486207      0.458620     Biso  1.000000 Au
   Au2963     1.0     0.734483      0.458620      0.458620     Biso  1.000000 Au
   Au2964     1.0     0.734483      0.486207      0.486207     Biso  1.000000 Au
   Au2965     1.0     0.762070      0.458620      0.486207     Biso  1.000000 Au
   Au2966     1.0     0.762070      0.486207      0.458620     Biso  1.000000 Au
   Au2967     1.0     0.789655      0.458620      0.458620     Biso  1.000000 Au
   Au2968     1.0     0.789655      0.486207      0.486207     Biso  1.000000 Au
   Au2969     1.0     0.817242      0.458620      0.486207     Biso  1.000000 Au
   Au2970     1.0     0.817242      0.486207      0.458620     Biso  1.000000 Au
   Au2971     1.0     0.844828      0.458620      0.458620     Biso  1.000000 Au
   Au2972     1.0     0.844828      0.486207      0.486207     Biso  1.000000 Au
   Au2973     1.0     0.872413      0.458620      0.486207     Biso  1.000000 Au
   Au2974     1.0     0.872413      0.486207      0.458620     Biso  1.000000 Au
   Au2975     1.0     0.900000      0.458620      0.458620     Biso  1.000000 Au
   Au2976     1.0     0.900000      0.486207      0.486207     Biso  1.000000 Au
   Au2977     1.0     0.100000      0.513793      0.486207     Biso  1.000000 Au
   Au2978     1.0     0.100000      0.541380      0.458620     Biso  1.000000 Au
   Au2979     1.0     0.127586      0.513793      0.458620     Biso  1.000000 Au
   Au2980     1.0     0.127586      0.541380      0.486207     Biso  1.000000 Au
   Au2981     1.0     0.155171      0.513793      0.486207     Biso  1.000000 Au
   Au2982     1.0     0.155171      0.541380      0.458620     Biso  1.000000 Au
   Au2983     1.0     0.182758      0.513793      0.458620     Biso  1.000000 Au
   Au2984     1.0     0.182758      0.541380      0.486207     Biso  1.000000 Au
   Au2985     1.0     0.210345      0.513793      0.486207     Biso  1.000000 Au
   Au2986     1.0     0.210345      0.541380      0.458620     Biso  1.000000 Au
   Au2987     1.0     0.237930      0.513793      0.458620     Biso  1.000000 Au
   Au2988     1.0     0.237930      0.541380      0.486207     Biso  1.000000 Au
   Au2989     1.0     0.265517      0.513793      0.486207     Biso  1.000000 Au
   Au2990     1.0     0.265517      0.541380      0.458620     Biso  1.000000 Au
   Au2991     1.0     0.293103      0.513793      0.458620     Biso  1.000000 Au
   Au2992     1.0     0.293103      0.541380      0.486207     Biso  1.000000 Au
   Au2993     1.0     0.320690      0.513793      0.486207     Biso  1.000000 Au
   Au2994     1.0     0.320690      0.541380      0.458620     Biso  1.000000 Au
   Au2995     1.0     0.348275      0.513793      0.458620     Biso  1.000000 Au
   Au2996     1.0     0.348275      0.541380      0.486207     Biso  1.000000 Au
   Au2997     1.0     0.375862      0.513793      0.486207     Biso  1.000000 Au
   Au2998     1.0     0.375862      0.541380      0.458620     Biso  1.000000 Au
   Au2999     1.0     0.403448      0.513793      0.458620     Biso  1.000000 Au
   Au3000     1.0     0.403448      0.541380      0.486207     Biso  1.000000 Au
   Au3001     1.0     0.431035      0.513793      0.486207     Biso  1.000000 Au
   Au3002     1.0     0.431035      0.541380      0.458620     Biso  1.000000 Au
   Au3003     1.0     0.458620      0.513793      0.458620     Biso  1.000000 Au
   Au3004     1.0     0.458620      0.541380      0.486207     Biso  1.000000 Au
   Au3005     1.0     0.486207      0.513793      0.486207     Biso  1.000000 Au
   Au3006     1.0     0.486207      0.541380      0.458620     Biso  1.000000 Au
   Au3007     1.0     0.513793      0.513793      0.458620     Biso  1.000000 Au
   Au3008     1.0     0.513793      0.541380      0.486207     Biso  1.000000 Au
   Au3009     1.0     0.541380      0.513793      0.486207     Biso  1.000000 Au
   Au3010     1.0     0.541380      0.541380      0.458620     Biso  1.000000 Au
   Au3011     1.0     0.568965      0.513793      0.458620     Biso  1.000000 Au
   Au3012     1.0     0.568965      0.541380      0.486207     Biso  1.000000 Au
   Au3013     1.0     0.596551      0.513793      0.486207     Biso  1.000000 Au
   Au3014     1.0     0.596551      0.541380      0.458620     Biso  1.000000 Au
   Au3015     1.0     0.624138      0.513793      0.458620     Biso  1.000000 Au
   Au3016     1.0     0.624138      0.541380      0.486207     Biso  1.000000 Au
   Au3017     1.0     0.651725      0.513793      0.486207     Biso  1.000000 Au
   Au3018     1.0     0.651725      0.541380      0.458620     Biso  1.000000 Au
   Au3019     1.0     0.679310      0.513793      0.458620     Biso  1.000000 Au
   Au3020     1.0     0.679310      0.541380      0.486207     Biso  1.000000 Au
   Au3021     1.0     0.706897      0.513793      0.486207     Biso  1.000000 Au
   Au3022     1.0     0.706897      0.541380      0.458620     Biso  1.000000 Au
   Au3023     1.0     0.734483      0.513793      0.458620     Biso  1.000000 Au
   Au3024     1.0     0.734483      0.541380      0.486207     Biso  1.000000 Au
   Au3025     1.0     0.762070      0.513793      0.486207     Biso  1.000000 Au
   Au3026     1.0     0.762070      0.541380      0.458620     Biso  1.000000 Au
   Au3027     1.0     0.789655      0.513793      0.458620     Biso  1.000000 Au
   Au3028     1.0     0.789655      0.541380      0.486207     Biso  1.000000 Au
   Au3029     1.0     0.817242      0.513793      0.486207     Biso  1.000000 Au
   Au3030     1.0     0.817242      0.541380      0.458620     Biso  1.000000 Au
   Au3031     1.0     0.844828      0.513793      0.458620     Biso  1.000000 Au
   Au3032     1.0     0.844828      0.541380      0.486207     Biso  1.000000 Au
   Au3033     1.0     0.872413      0.513793      0.486207     Biso  1.000000 Au
   Au3034     1.0     0.872413      0.541380      0.458620     Biso  1.000000 Au
   Au3035     1.0     0.900000      0.513793      0.458620     Biso  1.000000 Au
   Au3036     1.0     0.900000      0.541380      0.486207     Biso  1.000000 Au
   Au3037     1.0     0.127586      0.568965      0.458620     Biso  1.000000 Au
   Au3038     1.0     0.127586      0.596551      0.486207     Biso  1.000000 Au
   Au3039     1.0     0.155171      0.568965      0.486207     Biso  1.000000 Au
   Au3040     1.0     0.155171      0.596551      0.458620     Biso  1.000000 Au
   Au3041     1.0     0.182758      0.568965      0.458620     Biso  1.000000 Au
   Au3042     1.0     0.182758      0.596551      0.486207     Biso  1.000000 Au
   Au3043     1.0     0.210345      0.568965      0.486207     Biso  1.000000 Au
   Au3044     1.0     0.210345      0.596551      0.458620     Biso  1.000000 Au
   Au3045     1.0     0.237930      0.568965      0.458620     Biso  1.000000 Au
   Au3046     1.0     0.237930      0.596551      0.486207     Biso  1.000000 Au
   Au3047     1.0     0.265517      0.568965      0.486207     Biso  1.000000 Au
   Au3048     1.0     0.265517      0.596551      0.458620     Biso  1.000000 Au
   Au3049     1.0     0.293103      0.568965      0.458620     Biso  1.000000 Au
   Au3050     1.0     0.293103      0.596551      0.486207     Biso  1.000000 Au
   Au3051     1.0     0.320690      0.568965      0.486207     Biso  1.000000 Au
   Au3052     1.0     0.320690      0.596551      0.458620     Biso  1.000000 Au
   Au3053     1.0     0.348275      0.568965      0.458620     Biso  1.000000 Au
   Au3054     1.0     0.348275      0.596551      0.486207     Biso  1.000000 Au
   Au3055     1.0     0.375862      0.568965      0.486207     Biso  1.000000 Au
   Au3056     1.0     0.375862      0.596551      0.458620     Biso  1.000000 Au
   Au3057     1.0     0.403448      0.568965      0.458620     Biso  1.000000 Au
   Au3058     1.0     0.403448      0.596551      0.486207     Biso  1.000000 Au
   Au3059     1.0     0.431035      0.568965      0.486207     Biso  1.000000 Au
   Au3060     1.0     0.431035      0.596551      0.458620     Biso  1.000000 Au
   Au3061     1.0     0.458620      0.568965      0.458620     Biso  1.000000 Au
   Au3062     1.0     0.458620      0.596551      0.486207     Biso  1.000000 Au
   Au3063     1.0     0.486207      0.568965      0.486207     Biso  1.000000 Au
   Au3064     1.0     0.486207      0.596551      0.458620     Biso  1.000000 Au
   Au3065     1.0     0.513793      0.568965      0.458620     Biso  1.000000 Au
   Au3066     1.0     0.513793      0.596551      0.486207     Biso  1.000000 Au
   Au3067     1.0     0.541380      0.568965      0.486207     Biso  1.000000 Au
   Au3068     1.0     0.541380      0.596551      0.458620     Biso  1.000000 Au
   Au3069     1.0     0.568965      0.568965      0.458620     Biso  1.000000 Au
   Au3070     1.0     0.568965      0.596551      0.486207     Biso  1.000000 Au
   Au3071     1.0     0.596551      0.568965      0.486207     Biso  1.000000 Au
   Au3072     1.0     0.596551      0.596551      0.458620     Biso  1.000000 Au
   Au3073     1.0     0.624138      0.568965      0.458620     Biso  1.000000 Au
   Au3074     1.0     0.624138      0.596551      0.486207     Biso  1.000000 Au
   Au3075     1.0     0.651725      0.568965      0.486207     Biso  1.000000 Au
   Au3076     1.0     0.651725      0.596551      0.458620     Biso  1.000000 Au
   Au3077     1.0     0.679310      0.568965      0.458620     Biso  1.000000 Au
   Au3078     1.0     0.679310      0.596551      0.486207     Biso  1.000000 Au
   Au3079     1.0     0.706897      0.568965      0.486207     Biso  1.000000 Au
   Au3080     1.0     0.706897      0.596551      0.458620     Biso  1.000000 Au
   Au3081     1.0     0.734483      0.568965      0.458620     Biso  1.000000 Au
   Au3082     1.0     0.734483      0.596551      0.486207     Biso  1.000000 Au
   Au3083     1.0     0.762070      0.568965      0.486207     Biso  1.000000 Au
   Au3084     1.0     0.762070      0.596551      0.458620     Biso  1.000000 Au
   Au3085     1.0     0.789655      0.568965      0.458620     Biso  1.000000 Au
   Au3086     1.0     0.789655      0.596551      0.486207     Biso  1.000000 Au
   Au3087     1.0     0.817242      0.568965      0.486207     Biso  1.000000 Au
   Au3088     1.0     0.817242      0.596551      0.458620     Biso  1.000000 Au
   Au3089     1.0     0.844828      0.568965      0.458620     Biso  1.000000 Au
   Au3090     1.0     0.844828      0.596551      0.486207     Biso  1.000000 Au
   Au3091     1.0     0.872413      0.568965      0.486207     Biso  1.000000 Au
   Au3092     1.0     0.872413      0.596551      0.458620     Biso  1.000000 Au
   Au3093     1.0     0.127586      0.624138      0.458620     Biso  1.000000 Au
   Au3094     1.0     0.127586      0.651725      0.486207     Biso  1.000000 Au
   Au3095     1.0     0.155171      0.624138      0.486207     Biso  1.000000 Au
   Au3096     1.0     0.155171      0.651725      0.458620     Biso  1.000000 Au
   Au3097     1.0     0.182758      0.624138      0.458620     Biso  1.000000 Au
   Au3098     1.0     0.182758      0.651725      0.486207     Biso  1.000000 Au
   Au3099     1.0     0.210345      0.624138      0.486207     Biso  1.000000 Au
   Au3100     1.0     0.210345      0.651725      0.458620     Biso  1.000000 Au
   Au3101     1.0     0.237930      0.624138      0.458620     Biso  1.000000 Au
   Au3102     1.0     0.237930      0.651725      0.486207     Biso  1.000000 Au
   Au3103     1.0     0.265517      0.624138      0.486207     Biso  1.000000 Au
   Au3104     1.0     0.265517      0.651725      0.458620     Biso  1.000000 Au
   Au3105     1.0     0.293103      0.624138      0.458620     Biso  1.000000 Au
   Au3106     1.0     0.293103      0.651725      0.486207     Biso  1.000000 Au
   Au3107     1.0     0.320690      0.624138      0.486207     Biso  1.000000 Au
   Au3108     1.0     0.320690      0.651725      0.458620     Biso  1.000000 Au
   Au3109     1.0     0.348275      0.624138      0.458620     Biso  1.000000 Au
   Au3110     1.0     0.348275      0.651725      0.486207     Biso  1.000000 Au
   Au3111     1.0     0.375862      0.624138      0.486207     Biso  1.000000 Au
   Au3112     1.0     0.375862      0.651725      0.458620     Biso  1.000000 Au
   Au3113     1.0     0.403448      0.624138      0.458620     Biso  1.000000 Au
   Au3114     1.0     0.403448      0.651725      0.486207     Biso  1.000000 Au
   Au3115     1.0     0.431035      0.624138      0.486207     Biso  1.000000 Au
   Au3116     1.0     0.431035      0.651725      0.458620     Biso  1.000000 Au
   Au3117     1.0     0.458620      0.624138      0.458620     Biso  1.000000 Au
   Au3118     1.0     0.458620      0.651725      0.486207     Biso  1.000000 Au
   Au3119     1.0     0.486207      0.624138      0.486207     Biso  1.000000 Au
   Au3120     1.0     0.486207      0.651725      0.458620     Biso  1.000000 Au
   Au3121     1.0     0.513793      0.624138      0.458620     Biso  1.000000 Au
   Au3122     1.0     0.513793      0.651725      0.486207     Biso  1.000000 Au
   Au3123     1.0     0.541380      0.624138      0.486207     Biso  1.000000 Au
   Au3124     1.0     0.541380      0.651725      0.458620     Biso  1.000000 Au
   Au3125     1.0     0.568965      0.624138      0.458620     Biso  1.000000 Au
   Au3126     1.0     0.568965      0.651725      0.486207     Biso  1.000000 Au
   Au3127     1.0     0.596551      0.624138      0.486207     Biso  1.000000 Au
   Au3128     1.0     0.596551      0.651725      0.458620     Biso  1.000000 Au
   Au3129     1.0     0.624138      0.624138      0.458620     Biso  1.000000 Au
   Au3130     1.0     0.624138      0.651725      0.486207     Biso  1.000000 Au
   Au3131     1.0     0.651725      0.624138      0.486207     Biso  1.000000 Au
   Au3132     1.0     0.651725      0.651725      0.458620     Biso  1.000000 Au
   Au3133     1.0     0.679310      0.624138      0.458620     Biso  1.000000 Au
   Au3134     1.0     0.679310      0.651725      0.486207     Biso  1.000000 Au
   Au3135     1.0     0.706897      0.624138      0.486207     Biso  1.000000 Au
   Au3136     1.0     0.706897      0.651725      0.458620     Biso  1.000000 Au
   Au3137     1.0     0.734483      0.624138      0.458620     Biso  1.000000 Au
   Au3138     1.0     0.734483      0.651725      0.486207     Biso  1.000000 Au
   Au3139     1.0     0.762070      0.624138      0.486207     Biso  1.000000 Au
   Au3140     1.0     0.762070      0.651725      0.458620     Biso  1.000000 Au
   Au3141     1.0     0.789655      0.624138      0.458620     Biso  1.000000 Au
   Au3142     1.0     0.789655      0.651725      0.486207     Biso  1.000000 Au
   Au3143     1.0     0.817242      0.624138      0.486207     Biso  1.000000 Au
   Au3144     1.0     0.817242      0.651725      0.458620     Biso  1.000000 Au
   Au3145     1.0     0.844828      0.624138      0.458620     Biso  1.000000 Au
   Au3146     1.0     0.844828      0.651725      0.486207     Biso  1.000000 Au
   Au3147     1.0     0.872413      0.624138      0.486207     Biso  1.000000 Au
   Au3148     1.0     0.872413      0.651725      0.458620     Biso  1.000000 Au
   Au3149     1.0     0.155171      0.679310      0.486207     Biso  1.000000 Au
   Au3150     1.0     0.155171      0.706897      0.458620     Biso  1.000000 Au
   Au3151     1.0     0.182758      0.679310      0.458620     Biso  1.000000 Au
   Au3152     1.0     0.182758      0.706897      0.486207     Biso  1.000000 Au
   Au3153     1.0     0.210345      0.679310      0.486207     Biso  1.000000 Au
   Au3154     1.0     0.210345      0.706897      0.458620     Biso  1.000000 Au
   Au3155     1.0     0.237930      0.679310      0.458620     Biso  1.000000 Au
   Au3156     1.0     0.237930      0.706897      0.486207     Biso  1.000000 Au
   Au3157     1.0     0.265517      0.679310      0.486207     Biso  1.000000 Au
   Au3158     1.0     0.265517      0.706897      0.458620     Biso  1.000000 Au
   Au3159     1.0     0.293103      0.679310      0.458620     Biso  1.000000 Au
   Au3160     1.0     0.293103      0.706897      0.486207     Biso  1.000000 Au
   Au3161     1.0     0.320690      0.679310      0.486207     Biso  1.000000 Au
   Au3162     1.0     0.320690      0.706897      0.458620     Biso  1.000000 Au
   Au3163     1.0     0.348275      0.679310      0.458620     Biso  1.000000 Au
   Au3164     1.0     0.348275      0.706897      0.486207     Biso  1.000000 Au
   Au3165     1.0     0.375862      0.679310      0.486207     Biso  1.000000 Au
   Au3166     1.0     0.375862      0.706897      0.458620     Biso  1.000000 Au
   Au3167     1.0     0.403448      0.679310      0.458620     Biso  1.000000 Au
   Au3168     1.0     0.403448      0.706897      0.486207     Biso  1.000000 Au
   Au3169     1.0     0.431035      0.679310      0.486207     Biso  1.000000 Au
   Au3170     1.0     0.431035      0.706897      0.458620     Biso  1.000000 Au
   Au3171     1.0     0.458620      0.679310      0.458620     Biso  1.000000 Au
   Au3172     1.0     0.458620      0.706897      0.486207     Biso  1.000000 Au
   Au3173     1.0     0.486207      0.679310      0.486207     Biso  1.000000 Au
   Au3174     1.0     0.486207      0.706897      0.458620     Biso  1.000000 Au
   Au3175     1.0     0.513793      0.679310      0.458620     Biso  1.000000 Au
   Au3176     1.0     0.513793      0.706897      0.486207     Biso  1.000000 Au
   Au3177     1.0     0.541380      0.679310      0.486207     Biso  1.000000 Au
   Au3178     1.0     0.541380      0.706897      0.458620     Biso  1.000000 Au
   Au3179     1.0     0.568965      0.679310      0.458620     Biso  1.000000 Au
   Au3180     1.0     0.568965      0.706897      0.486207     Biso  1.000000 Au
   Au3181     1.0     0.596551      0.679310      0.486207     Biso  1.000000 Au
   Au3182     1.0     0.596551      0.706897      0.458620     Biso  1.000000 Au
   Au3183     1.0     0.624138      0.679310      0.458620     Biso  1.000000 Au
   Au3184     1.0     0.624138      0.706897      0.486207     Biso  1.000000 Au
   Au3185     1.0     0.651725      0.679310      0.486207     Biso  1.000000 Au
   Au3186     1.0     0.651725      0.706897      0.458620     Biso  1.000000 Au
   Au3187     1.0     0.679310      0.679310      0.458620     Biso  1.000000 Au
   Au3188     1.0     0.679310      0.706897      0.486207     Biso  1.000000 Au
   Au3189     1.0     0.706897      0.679310      0.486207     Biso  1.000000 Au
   Au3190     1.0     0.706897      0.706897      0.458620     Biso  1.000000 Au
   Au3191     1.0     0.734483      0.679310      0.458620     Biso  1.000000 Au
   Au3192     1.0     0.734483      0.706897      0.486207     Biso  1.000000 Au
   Au3193     1.0     0.762070      0.679310      0.486207     Biso  1.000000 Au
   Au3194     1.0     0.762070      0.706897      0.458620     Biso  1.000000 Au
   Au3195     1.0     0.789655      0.679310      0.458620     Biso  1.000000 Au
   Au3196     1.0     0.789655      0.706897      0.486207     Biso  1.000000 Au
   Au3197     1.0     0.817242      0.679310      0.486207     Biso  1.000000 Au
   Au3198     1.0     0.817242      0.706897      0.458620     Biso  1.000000 Au
   Au3199     1.0     0.844828      0.679310      0.458620     Biso  1.000000 Au
   Au3200     1.0     0.844828      0.706897      0.486207     Biso  1.000000 Au
   Au3201     1.0     0.182758      0.734483      0.458620     Biso  1.000000 Au
   Au3202     1.0     0.210345      0.734483      0.486207     Biso  1.000000 Au
   Au3203     1.0     0.210345      0.762070      0.458620     Biso  1.000000 Au
   Au3204     1.0     0.237930      0.734483      0.458620     Biso  1.000000 Au
   Au3205     1.0     0.237930      0.762070      0.486207     Biso  1.000000 Au
   Au3206     1.0     0.265517      0.734483      0.486207     Biso  1.000000 Au
   Au3207     1.0     0.265517      0.762070      0.458620     Biso  1.000000 Au
   Au3208     1.0     0.293103      0.734483      0.458620     Biso  1.000000 Au
   Au3209     1.0     0.293103      0.762070      0.486207     Biso  1.000000 Au
   Au3210     1.0     0.320690      0.734483      0.486207     Biso  1.000000 Au
   Au3211     1.0     0.320690      0.762070      0.458620     Biso  1.000000 Au
   Au3212     1.0     0.348275      0.734483      0.458620     Biso  1.000000 Au
   Au3213     1.0     0.348275      0.762070      0.486207     Biso  1.000000 Au
   Au3214     1.0     0.375862      0.734483      0.486207     Biso  1.000000 Au
   Au3215     1.0     0.375862      0.762070      0.458620     Biso  1.000000 Au
   Au3216     1.0     0.403448      0.734483      0.458620     Biso  1.000000 Au
   Au3217     1.0     0.403448      0.762070      0.486207     Biso  1.000000 Au
   Au3218     1.0     0.431035      0.734483      0.486207     Biso  1.000000 Au
   Au3219     1.0     0.431035      0.762070      0.458620     Biso  1.000000 Au
   Au3220     1.0     0.458620      0.734483      0.458620     Biso  1.000000 Au
   Au3221     1.0     0.458620      0.762070      0.486207     Biso  1.000000 Au
   Au3222     1.0     0.486207      0.734483      0.486207     Biso  1.000000 Au
   Au3223     1.0     0.486207      0.762070      0.458620     Biso  1.000000 Au
   Au3224     1.0     0.513793      0.734483      0.458620     Biso  1.000000 Au
   Au3225     1.0     0.513793      0.762070      0.486207     Biso  1.000000 Au
   Au3226     1.0     0.541380      0.734483      0.486207     Biso  1.000000 Au
   Au3227     1.0     0.541380      0.762070      0.458620     Biso  1.000000 Au
   Au3228     1.0     0.568965      0.734483      0.458620     Biso  1.000000 Au
   Au3229     1.0     0.568965      0.762070      0.486207     Biso  1.000000 Au
   Au3230     1.0     0.596551      0.734483      0.486207     Biso  1.000000 Au
   Au3231     1.0     0.596551      0.762070      0.458620     Biso  1.000000 Au
   Au3232     1.0     0.624138      0.734483      0.458620     Biso  1.000000 Au
   Au3233     1.0     0.624138      0.762070      0.486207     Biso  1.000000 Au
   Au3234     1.0     0.651725      0.734483      0.486207     Biso  1.000000 Au
   Au3235     1.0     0.651725      0.762070      0.458620     Biso  1.000000 Au
   Au3236     1.0     0.679310      0.734483      0.458620     Biso  1.000000 Au
   Au3237     1.0     0.679310      0.762070      0.486207     Biso  1.000000 Au
   Au3238     1.0     0.706897      0.734483      0.486207     Biso  1.000000 Au
   Au3239     1.0     0.706897      0.762070      0.458620     Biso  1.000000 Au
   Au3240     1.0     0.734483      0.734483      0.458620     Biso  1.000000 Au
   Au3241     1.0     0.734483      0.762070      0.486207     Biso  1.000000 Au
   Au3242     1.0     0.762070      0.734483      0.486207     Biso  1.000000 Au
   Au3243     1.0     0.762070      0.762070      0.458620     Biso  1.000000 Au
   Au3244     1.0     0.789655      0.734483      0.458620     Biso  1.000000 Au
   Au3245     1.0     0.789655      0.762070      0.486207     Biso  1.000000 Au
   Au3246     1.0     0.817242      0.734483      0.486207     Biso  1.000000 Au
   Au3247     1.0     0.237930      0.789655      0.458620     Biso  1.000000 Au
   Au3248     1.0     0.265517      0.789655      0.486207     Biso  1.000000 Au
   Au3249     1.0     0.265517      0.817242      0.458620     Biso  1.000000 Au
   Au3250     1.0     0.293103      0.789655      0.458620     Biso  1.000000 Au
   Au3251     1.0     0.293103      0.817242      0.486207     Biso  1.000000 Au
   Au3252     1.0     0.320690      0.789655      0.486207     Biso  1.000000 Au
   Au3253     1.0     0.320690      0.817242      0.458620     Biso  1.000000 Au
   Au3254     1.0     0.348275      0.789655      0.458620     Biso  1.000000 Au
   Au3255     1.0     0.348275      0.817242      0.486207     Biso  1.000000 Au
   Au3256     1.0     0.375862      0.789655      0.486207     Biso  1.000000 Au
   Au3257     1.0     0.375862      0.817242      0.458620     Biso  1.000000 Au
   Au3258     1.0     0.403448      0.789655      0.458620     Biso  1.000000 Au
   Au3259     1.0     0.403448      0.817242      0.486207     Biso  1.000000 Au
   Au3260     1.0     0.431035      0.789655      0.486207     Biso  1.000000 Au
   Au3261     1.0     0.431035      0.817242      0.458620     Biso  1.000000 Au
   Au3262     1.0     0.458620      0.789655      0.458620     Biso  1.000000 Au
   Au3263     1.0     0.458620      0.817242      0.486207     Biso  1.000000 Au
   Au3264     1.0     0.486207      0.789655      0.486207     Biso  1.000000 Au
   Au3265     1.0     0.486207      0.817242      0.458620     Biso  1.000000 Au
   Au3266     1.0     0.513793      0.789655      0.458620     Biso  1.000000 Au
   Au3267     1.0     0.513793      0.817242      0.486207     Biso  1.000000 Au
   Au3268     1.0     0.541380      0.789655      0.486207     Biso  1.000000 Au
   Au3269     1.0     0.541380      0.817242      0.458620     Biso  1.000000 Au
   Au3270     1.0     0.568965      0.789655      0.458620     Biso  1.000000 Au
   Au3271     1.0     0.568965      0.817242      0.486207     Biso  1.000000 Au
   Au3272     1.0     0.596551      0.789655      0.486207     Biso  1.000000 Au
   Au3273     1.0     0.596551      0.817242      0.458620     Biso  1.000000 Au
   Au3274     1.0     0.624138      0.789655      0.458620     Biso  1.000000 Au
   Au3275     1.0     0.624138      0.817242      0.486207     Biso  1.000000 Au
   Au3276     1.0     0.651725      0.789655      0.486207     Biso  1.000000 Au
   Au3277     1.0     0.651725      0.817242      0.458620     Biso  1.000000 Au
   Au3278     1.0     0.679310      0.789655      0.458620     Biso  1.000000 Au
   Au3279     1.0     0.679310      0.817242      0.486207     Biso  1.000000 Au
   Au3280     1.0     0.706897      0.789655      0.486207     Biso  1.000000 Au
   Au3281     1.0     0.706897      0.817242      0.458620     Biso  1.000000 Au
   Au3282     1.0     0.734483      0.789655      0.458620     Biso  1.000000 Au
   Au3283     1.0     0.734483      0.817242      0.486207     Biso  1.000000 Au
   Au3284     1.0     0.762070      0.789655      0.486207     Biso  1.000000 Au
   Au3285     1.0     0.293103      0.844828      0.458620     Biso  1.000000 Au
   Au3286     1.0     0.320690      0.844828      0.486207     Biso  1.000000 Au
   Au3287     1.0     0.348275      0.844828      0.458620     Biso  1.000000 Au
   Au3288     1.0     0.348275      0.872413      0.486207     Biso  1.000000 Au
   Au3289     1.0     0.375862      0.844828      0.486207     Biso  1.000000 Au
   Au3290     1.0     0.375862      0.872413      0.458620     Biso  1.000000 Au
   Au3291     1.0     0.403448      0.844828      0.458620     Biso  1.000000 Au
   Au3292     1.0     0.403448      0.872413      0.486207     Biso  1.000000 Au
   Au3293     1.0     0.431035      0.844828      0.486207     Biso  1.000000 Au
   Au3294     1.0     0.431035      0.872413      0.458620     Biso  1.000000 Au
   Au3295     1.0     0.458620      0.844828      0.458620     Biso  1.000000 Au
   Au3296     1.0     0.458620      0.872413      0.486207     Biso  1.000000 Au
   Au3297     1.0     0.486207      0.844828      0.486207     Biso  1.000000 Au
   Au3298     1.0     0.486207      0.872413      0.458620     Biso  1.000000 Au
   Au3299     1.0     0.513793      0.844828      0.458620     Biso  1.000000 Au
   Au3300     1.0     0.513793      0.872413      0.486207     Biso  1.000000 Au
   Au3301     1.0     0.541380      0.844828      0.486207     Biso  1.000000 Au
   Au3302     1.0     0.541380      0.872413      0.458620     Biso  1.000000 Au
   Au3303     1.0     0.568965      0.844828      0.458620     Biso  1.000000 Au
   Au3304     1.0     0.568965      0.872413      0.486207     Biso  1.000000 Au
   Au3305     1.0     0.596551      0.844828      0.486207     Biso  1.000000 Au
   Au3306     1.0     0.596551      0.872413      0.458620     Biso  1.000000 Au
   Au3307     1.0     0.624138      0.844828      0.458620     Biso  1.000000 Au
   Au3308     1.0     0.624138      0.872413      0.486207     Biso  1.000000 Au
   Au3309     1.0     0.651725      0.844828      0.486207     Biso  1.000000 Au
   Au3310     1.0     0.651725      0.872413      0.458620     Biso  1.000000 Au
   Au3311     1.0     0.679310      0.844828      0.458620     Biso  1.000000 Au
   Au3312     1.0     0.706897      0.844828      0.486207     Biso  1.000000 Au
   Au3313     1.0     0.458620      0.900000      0.458620     Biso  1.000000 Au
   Au3314     1.0     0.486207      0.900000      0.486207     Biso  1.000000 Au
   Au3315     1.0     0.513793      0.900000      0.458620     Biso  1.000000 Au
   Au3316     1.0     0.541380      0.900000      0.486207     Biso  1.000000 Au
   Au3317     1.0     0.458620      0.100000      0.541380     Biso  1.000000 Au
   Au3318     1.0     0.486207      0.100000      0.513793     Biso  1.000000 Au
   Au3319     1.0     0.513793      0.100000      0.541380     Biso  1.000000 Au
   Au3320     1.0     0.541380      0.100000      0.513793     Biso  1.000000 Au
   Au3321     1.0     0.293103      0.155171      0.541380     Biso  1.000000 Au
   Au3322     1.0     0.320690      0.155171      0.513793     Biso  1.000000 Au
   Au3323     1.0     0.348275      0.127586      0.513793     Biso  1.000000 Au
   Au3324     1.0     0.348275      0.155171      0.541380     Biso  1.000000 Au
   Au3325     1.0     0.375862      0.127586      0.541380     Biso  1.000000 Au
   Au3326     1.0     0.375862      0.155171      0.513793     Biso  1.000000 Au
   Au3327     1.0     0.403448      0.127586      0.513793     Biso  1.000000 Au
   Au3328     1.0     0.403448      0.155171      0.541380     Biso  1.000000 Au
   Au3329     1.0     0.431035      0.127586      0.541380     Biso  1.000000 Au
   Au3330     1.0     0.431035      0.155171      0.513793     Biso  1.000000 Au
   Au3331     1.0     0.458620      0.127586      0.513793     Biso  1.000000 Au
   Au3332     1.0     0.458620      0.155171      0.541380     Biso  1.000000 Au
   Au3333     1.0     0.486207      0.127586      0.541380     Biso  1.000000 Au
   Au3334     1.0     0.486207      0.155171      0.513793     Biso  1.000000 Au
   Au3335     1.0     0.513793      0.127586      0.513793     Biso  1.000000 Au
   Au3336     1.0     0.513793      0.155171      0.541380     Biso  1.000000 Au
   Au3337     1.0     0.541380      0.127586      0.541380     Biso  1.000000 Au
   Au3338     1.0     0.541380      0.155171      0.513793     Biso  1.000000 Au
   Au3339     1.0     0.568965      0.127586      0.513793     Biso  1.000000 Au
   Au3340     1.0     0.568965      0.155171      0.541380     Biso  1.000000 Au
   Au3341     1.0     0.596551      0.127586      0.541380     Biso  1.000000 Au
   Au3342     1.0     0.596551      0.155171      0.513793     Biso  1.000000 Au
   Au3343     1.0     0.624138      0.127586      0.513793     Biso  1.000000 Au
   Au3344     1.0     0.624138      0.155171      0.541380     Biso  1.000000 Au
   Au3345     1.0     0.651725      0.127586      0.541380     Biso  1.000000 Au
   Au3346     1.0     0.651725      0.155171      0.513793     Biso  1.000000 Au
   Au3347     1.0     0.679310      0.155171      0.541380     Biso  1.000000 Au
   Au3348     1.0     0.706897      0.155171      0.513793     Biso  1.000000 Au
   Au3349     1.0     0.237930      0.210345      0.541380     Biso  1.000000 Au
   Au3350     1.0     0.265517      0.182758      0.541380     Biso  1.000000 Au
   Au3351     1.0     0.265517      0.210345      0.513793     Biso  1.000000 Au
   Au3352     1.0     0.293103      0.182758      0.513793     Biso  1.000000 Au
   Au3353     1.0     0.293103      0.210345      0.541380     Biso  1.000000 Au
   Au3354     1.0     0.320690      0.182758      0.541380     Biso  1.000000 Au
   Au3355     1.0     0.320690      0.210345      0.513793     Biso  1.000000 Au
   Au3356     1.0     0.348275      0.182758      0.513793     Biso  1.000000 Au
   Au3357     1.0     0.348275      0.210345      0.541380     Biso  1.000000 Au
   Au3358     1.0     0.375862      0.182758      0.541380     Biso  1.000000 Au
   Au3359     1.0     0.375862      0.210345      0.513793     Biso  1.000000 Au
   Au3360     1.0     0.403448      0.182758      0.513793     Biso  1.000000 Au
   Au3361     1.0     0.403448      0.210345      0.541380     Biso  1.000000 Au
   Au3362     1.0     0.431035      0.182758      0.541380     Biso  1.000000 Au
   Au3363     1.0     0.431035      0.210345      0.513793     Biso  1.000000 Au
   Au3364     1.0     0.458620      0.182758      0.513793     Biso  1.000000 Au
   Au3365     1.0     0.458620      0.210345      0.541380     Biso  1.000000 Au
   Au3366     1.0     0.486207      0.182758      0.541380     Biso  1.000000 Au
   Au3367     1.0     0.486207      0.210345      0.513793     Biso  1.000000 Au
   Au3368     1.0     0.513793      0.182758      0.513793     Biso  1.000000 Au
   Au3369     1.0     0.513793      0.210345      0.541380     Biso  1.000000 Au
   Au3370     1.0     0.541380      0.182758      0.541380     Biso  1.000000 Au
   Au3371     1.0     0.541380      0.210345      0.513793     Biso  1.000000 Au
   Au3372     1.0     0.568965      0.182758      0.513793     Biso  1.000000 Au
   Au3373     1.0     0.568965      0.210345      0.541380     Biso  1.000000 Au
   Au3374     1.0     0.596551      0.182758      0.541380     Biso  1.000000 Au
   Au3375     1.0     0.596551      0.210345      0.513793     Biso  1.000000 Au
   Au3376     1.0     0.624138      0.182758      0.513793     Biso  1.000000 Au
   Au3377     1.0     0.624138      0.210345      0.541380     Biso  1.000000 Au
   Au3378     1.0     0.651725      0.182758      0.541380     Biso  1.000000 Au
   Au3379     1.0     0.651725      0.210345      0.513793     Biso  1.000000 Au
   Au3380     1.0     0.679310      0.182758      0.513793     Biso  1.000000 Au
   Au3381     1.0     0.679310      0.210345      0.541380     Biso  1.000000 Au
   Au3382     1.0     0.706897      0.182758      0.541380     Biso  1.000000 Au
   Au3383     1.0     0.706897      0.210345      0.513793     Biso  1.000000 Au
   Au3384     1.0     0.734483      0.182758      0.513793     Biso  1.000000 Au
   Au3385     1.0     0.734483      0.210345      0.541380     Biso  1.000000 Au
   Au3386     1.0     0.762070      0.210345      0.513793     Biso  1.000000 Au
   Au3387     1.0     0.182758      0.265517      0.541380     Biso  1.000000 Au
   Au3388     1.0     0.210345      0.237930      0.541380     Biso  1.000000 Au
   Au3389     1.0     0.210345      0.265517      0.513793     Biso  1.000000 Au
   Au3390     1.0     0.237930      0.237930      0.513793     Biso  1.000000 Au
   Au3391     1.0     0.237930      0.265517      0.541380     Biso  1.000000 Au
   Au3392     1.0     0.265517      0.237930      0.541380     Biso  1.000000 Au
   Au3393     1.0     0.265517      0.265517      0.513793     Biso  1.000000 Au
   Au3394     1.0     0.293103      0.237930      0.513793     Biso  1.000000 Au
   Au3395     1.0     0.293103      0.265517      0.541380     Biso  1.000000 Au
   Au3396     1.0     0.320690      0.237930      0.541380     Biso  1.000000 Au
   Au3397     1.0     0.320690      0.265517      0.513793     Biso  1.000000 Au
   Au3398     1.0     0.348275      0.237930      0.513793     Biso  1.000000 Au
   Au3399     1.0     0.348275      0.265517      0.541380     Biso  1.000000 Au
   Au3400     1.0     0.375862      0.237930      0.541380     Biso  1.000000 Au
   Au3401     1.0     0.375862      0.265517      0.513793     Biso  1.000000 Au
   Au3402     1.0     0.403448      0.237930      0.513793     Biso  1.000000 Au
   Au3403     1.0     0.403448      0.265517      0.541380     Biso  1.000000 Au
   Au3404     1.0     0.431035      0.237930      0.541380     Biso  1.000000 Au
   Au3405     1.0     0.431035      0.265517      0.513793     Biso  1.000000 Au
   Au3406     1.0     0.458620      0.237930      0.513793     Biso  1.000000 Au
   Au3407     1.0     0.458620      0.265517      0.541380     Biso  1.000000 Au
   Au3408     1.0     0.486207      0.237930      0.541380     Biso  1.000000 Au
   Au3409     1.0     0.486207      0.265517      0.513793     Biso  1.000000 Au
   Au3410     1.0     0.513793      0.237930      0.513793     Biso  1.000000 Au
   Au3411     1.0     0.513793      0.265517      0.541380     Biso  1.000000 Au
   Au3412     1.0     0.541380      0.237930      0.541380     Biso  1.000000 Au
   Au3413     1.0     0.541380      0.265517      0.513793     Biso  1.000000 Au
   Au3414     1.0     0.568965      0.237930      0.513793     Biso  1.000000 Au
   Au3415     1.0     0.568965      0.265517      0.541380     Biso  1.000000 Au
   Au3416     1.0     0.596551      0.237930      0.541380     Biso  1.000000 Au
   Au3417     1.0     0.596551      0.265517      0.513793     Biso  1.000000 Au
   Au3418     1.0     0.624138      0.237930      0.513793     Biso  1.000000 Au
   Au3419     1.0     0.624138      0.265517      0.541380     Biso  1.000000 Au
   Au3420     1.0     0.651725      0.237930      0.541380     Biso  1.000000 Au
   Au3421     1.0     0.651725      0.265517      0.513793     Biso  1.000000 Au
   Au3422     1.0     0.679310      0.237930      0.513793     Biso  1.000000 Au
   Au3423     1.0     0.679310      0.265517      0.541380     Biso  1.000000 Au
   Au3424     1.0     0.706897      0.237930      0.541380     Biso  1.000000 Au
   Au3425     1.0     0.706897      0.265517      0.513793     Biso  1.000000 Au
   Au3426     1.0     0.734483      0.237930      0.513793     Biso  1.000000 Au
   Au3427     1.0     0.734483      0.265517      0.541380     Biso  1.000000 Au
   Au3428     1.0     0.762070      0.237930      0.541380     Biso  1.000000 Au
   Au3429     1.0     0.762070      0.265517      0.513793     Biso  1.000000 Au
   Au3430     1.0     0.789655      0.237930      0.513793     Biso  1.000000 Au
   Au3431     1.0     0.789655      0.265517      0.541380     Biso  1.000000 Au
   Au3432     1.0     0.817242      0.265517      0.513793     Biso  1.000000 Au
   Au3433     1.0     0.155171      0.293103      0.541380     Biso  1.000000 Au
   Au3434     1.0     0.155171      0.320690      0.513793     Biso  1.000000 Au
   Au3435     1.0     0.182758      0.293103      0.513793     Biso  1.000000 Au
   Au3436     1.0     0.182758      0.320690      0.541380     Biso  1.000000 Au
   Au3437     1.0     0.210345      0.293103      0.541380     Biso  1.000000 Au
   Au3438     1.0     0.210345      0.320690      0.513793     Biso  1.000000 Au
   Au3439     1.0     0.237930      0.293103      0.513793     Biso  1.000000 Au
   Au3440     1.0     0.237930      0.320690      0.541380     Biso  1.000000 Au
   Au3441     1.0     0.265517      0.293103      0.541380     Biso  1.000000 Au
   Au3442     1.0     0.265517      0.320690      0.513793     Biso  1.000000 Au
   Au3443     1.0     0.293103      0.293103      0.513793     Biso  1.000000 Au
   Au3444     1.0     0.293103      0.320690      0.541380     Biso  1.000000 Au
   Au3445     1.0     0.320690      0.293103      0.541380     Biso  1.000000 Au
   Au3446     1.0     0.320690      0.320690      0.513793     Biso  1.000000 Au
   Au3447     1.0     0.348275      0.293103      0.513793     Biso  1.000000 Au
   Au3448     1.0     0.348275      0.320690      0.541380     Biso  1.000000 Au
   Au3449     1.0     0.375862      0.293103      0.541380     Biso  1.000000 Au
   Au3450     1.0     0.375862      0.320690      0.513793     Biso  1.000000 Au
   Au3451     1.0     0.403448      0.293103      0.513793     Biso  1.000000 Au
   Au3452     1.0     0.403448      0.320690      0.541380     Biso  1.000000 Au
   Au3453     1.0     0.431035      0.293103      0.541380     Biso  1.000000 Au
   Au3454     1.0     0.431035      0.320690      0.513793     Biso  1.000000 Au
   Au3455     1.0     0.458620      0.293103      0.513793     Biso  1.000000 Au
   Au3456     1.0     0.458620      0.320690      0.541380     Biso  1.000000 Au
   Au3457     1.0     0.486207      0.293103      0.541380     Biso  1.000000 Au
   Au3458     1.0     0.486207      0.320690      0.513793     Biso  1.000000 Au
   Au3459     1.0     0.513793      0.293103      0.513793     Biso  1.000000 Au
   Au3460     1.0     0.513793      0.320690      0.541380     Biso  1.000000 Au
   Au3461     1.0     0.541380      0.293103      0.541380     Biso  1.000000 Au
   Au3462     1.0     0.541380      0.320690      0.513793     Biso  1.000000 Au
   Au3463     1.0     0.568965      0.293103      0.513793     Biso  1.000000 Au
   Au3464     1.0     0.568965      0.320690      0.541380     Biso  1.000000 Au
   Au3465     1.0     0.596551      0.293103      0.541380     Biso  1.000000 Au
   Au3466     1.0     0.596551      0.320690      0.513793     Biso  1.000000 Au
   Au3467     1.0     0.624138      0.293103      0.513793     Biso  1.000000 Au
   Au3468     1.0     0.624138      0.320690      0.541380     Biso  1.000000 Au
   Au3469     1.0     0.651725      0.293103      0.541380     Biso  1.000000 Au
   Au3470     1.0     0.651725      0.320690      0.513793     Biso  1.000000 Au
   Au3471     1.0     0.679310      0.293103      0.513793     Biso  1.000000 Au
   Au3472     1.0     0.679310      0.320690      0.541380     Biso  1.000000 Au
   Au3473     1.0     0.706897      0.293103      0.541380     Biso  1.000000 Au
   Au3474     1.0     0.706897      0.320690      0.513793     Biso  1.000000 Au
   Au3475     1.0     0.734483      0.293103      0.513793     Biso  1.000000 Au
   Au3476     1.0     0.734483      0.320690      0.541380     Biso  1.000000 Au
   Au3477     1.0     0.762070      0.293103      0.541380     Biso  1.000000 Au
   Au3478     1.0     0.762070      0.320690      0.513793     Biso  1.000000 Au
   Au3479     1.0     0.789655      0.293103      0.513793     Biso  1.000000 Au
   Au3480     1.0     0.789655      0.320690      0.541380     Biso  1.000000 Au
   Au3481     1.0     0.817242      0.293103      0.541380     Biso  1.000000 Au
   Au3482     1.0     0.817242      0.320690      0.513793     Biso  1.000000 Au
   Au3483     1.0     0.844828      0.293103      0.513793     Biso  1.000000 Au
   Au3484     1.0     0.844828      0.320690      0.541380     Biso  1.000000 Au
   Au3485     1.0     0.127586      0.348275      0.513793     Biso  1.000000 Au
   Au3486     1.0     0.127586      0.375862      0.541380     Biso  1.000000 Au
   Au3487     1.0     0.155171      0.348275      0.541380     Biso  1.000000 Au
   Au3488     1.0     0.155171      0.375862      0.513793     Biso  1.000000 Au
   Au3489     1.0     0.182758      0.348275      0.513793     Biso  1.000000 Au
   Au3490     1.0     0.182758      0.375862      0.541380     Biso  1.000000 Au
   Au3491     1.0     0.210345      0.348275      0.541380     Biso  1.000000 Au
   Au3492     1.0     0.210345      0.375862      0.513793     Biso  1.000000 Au
   Au3493     1.0     0.237930      0.348275      0.513793     Biso  1.000000 Au
   Au3494     1.0     0.237930      0.375862      0.541380     Biso  1.000000 Au
   Au3495     1.0     0.265517      0.348275      0.541380     Biso  1.000000 Au
   Au3496     1.0     0.265517      0.375862      0.513793     Biso  1.000000 Au
   Au3497     1.0     0.293103      0.348275      0.513793     Biso  1.000000 Au
   Au3498     1.0     0.293103      0.375862      0.541380     Biso  1.000000 Au
   Au3499     1.0     0.320690      0.348275      0.541380     Biso  1.000000 Au
   Au3500     1.0     0.320690      0.375862      0.513793     Biso  1.000000 Au
   Au3501     1.0     0.348275      0.348275      0.513793     Biso  1.000000 Au
   Au3502     1.0     0.348275      0.375862      0.541380     Biso  1.000000 Au
   Au3503     1.0     0.375862      0.348275      0.541380     Biso  1.000000 Au
   Au3504     1.0     0.375862      0.375862      0.513793     Biso  1.000000 Au
   Au3505     1.0     0.403448      0.348275      0.513793     Biso  1.000000 Au
   Au3506     1.0     0.403448      0.375862      0.541380     Biso  1.000000 Au
   Au3507     1.0     0.431035      0.348275      0.541380     Biso  1.000000 Au
   Au3508     1.0     0.431035      0.375862      0.513793     Biso  1.000000 Au
   Au3509     1.0     0.458620      0.348275      0.513793     Biso  1.000000 Au
   Au3510     1.0     0.458620      0.375862      0.541380     Biso  1.000000 Au
   Au3511     1.0     0.486207      0.348275      0.541380     Biso  1.000000 Au
   Au3512     1.0     0.486207      0.375862      0.513793     Biso  1.000000 Au
   Au3513     1.0     0.513793      0.348275      0.513793     Biso  1.000000 Au
   Au3514     1.0     0.513793      0.375862      0.541380     Biso  1.000000 Au
   Au3515     1.0     0.541380      0.348275      0.541380     Biso  1.000000 Au
   Au3516     1.0     0.541380      0.375862      0.513793     Biso  1.000000 Au
   Au3517     1.0     0.568965      0.348275      0.513793     Biso  1.000000 Au
   Au3518     1.0     0.568965      0.375862      0.541380     Biso  1.000000 Au
   Au3519     1.0     0.596551      0.348275      0.541380     Biso  1.000000 Au
   Au3520     1.0     0.596551      0.375862      0.513793     Biso  1.000000 Au
   Au3521     1.0     0.624138      0.348275      0.513793     Biso  1.000000 Au
   Au3522     1.0     0.624138      0.375862      0.541380     Biso  1.000000 Au
   Au3523     1.0     0.651725      0.348275      0.541380     Biso  1.000000 Au
   Au3524     1.0     0.651725      0.375862      0.513793     Biso  1.000000 Au
   Au3525     1.0     0.679310      0.348275      0.513793     Biso  1.000000 Au
   Au3526     1.0     0.679310      0.375862      0.541380     Biso  1.000000 Au
   Au3527     1.0     0.706897      0.348275      0.541380     Biso  1.000000 Au
   Au3528     1.0     0.706897      0.375862      0.513793     Biso  1.000000 Au
   Au3529     1.0     0.734483      0.348275      0.513793     Biso  1.000000 Au
   Au3530     1.0     0.734483      0.375862      0.541380     Biso  1.000000 Au
   Au3531     1.0     0.762070      0.348275      0.541380     Biso  1.000000 Au
   Au3532     1.0     0.762070      0.375862      0.513793     Biso  1.000000 Au
   Au3533     1.0     0.789655      0.348275      0.513793     Biso  1.000000 Au
   Au3534     1.0     0.789655      0.375862      0.541380     Biso  1.000000 Au
   Au3535     1.0     0.817242      0.348275      0.541380     Biso  1.000000 Au
   Au3536     1.0     0.817242      0.375862      0.513793     Biso  1.000000 Au
   Au3537     1.0     0.844828      0.348275      0.513793     Biso  1.000000 Au
   Au3538     1.0     0.844828      0.375862      0.541380     Biso  1.000000 Au
   Au3539     1.0     0.872413      0.348275      0.541380     Biso  1.000000 Au
   Au3540     1.0     0.872413      0.375862      0.513793     Biso  1.000000 Au
   Au3541     1.0     0.127586      0.403448      0.513793     Biso  1.000000 Au
   Au3542     1.0     0.127586      0.431035      0.541380     Biso  1.000000 Au
   Au3543     1.0     0.155171      0.403448      0.541380     Biso  1.000000 Au
   Au3544     1.0     0.155171      0.431035      0.513793     Biso  1.000000 Au
   Au3545     1.0     0.182758      0.403448      0.513793     Biso  1.000000 Au
   Au3546     1.0     0.182758      0.431035      0.541380     Biso  1.000000 Au
   Au3547     1.0     0.210345      0.403448      0.541380     Biso  1.000000 Au
   Au3548     1.0     0.210345      0.431035      0.513793     Biso  1.000000 Au
   Au3549     1.0     0.237930      0.403448      0.513793     Biso  1.000000 Au
   Au3550     1.0     0.237930      0.431035      0.541380     Biso  1.000000 Au
   Au3551     1.0     0.265517      0.403448      0.541380     Biso  1.000000 Au
   Au3552     1.0     0.265517      0.431035      0.513793     Biso  1.000000 Au
   Au3553     1.0     0.293103      0.403448      0.513793     Biso  1.000000 Au
   Au3554     1.0     0.293103      0.431035      0.541380     Biso  1.000000 Au
   Au3555     1.0     0.320690      0.403448      0.541380     Biso  1.000000 Au
   Au3556     1.0     0.320690      0.431035      0.513793     Biso  1.000000 Au
   Au3557     1.0     0.348275      0.403448      0.513793     Biso  1.000000 Au
   Au3558     1.0     0.348275      0.431035      0.541380     Biso  1.000000 Au
   Au3559     1.0     0.375862      0.403448      0.541380     Biso  1.000000 Au
   Au3560     1.0     0.375862      0.431035      0.513793     Biso  1.000000 Au
   Au3561     1.0     0.403448      0.403448      0.513793     Biso  1.000000 Au
   Au3562     1.0     0.403448      0.431035      0.541380     Biso  1.000000 Au
   Au3563     1.0     0.431035      0.403448      0.541380     Biso  1.000000 Au
   Au3564     1.0     0.431035      0.431035      0.513793     Biso  1.000000 Au
   Au3565     1.0     0.458620      0.403448      0.513793     Biso  1.000000 Au
   Au3566     1.0     0.458620      0.431035      0.541380     Biso  1.000000 Au
   Au3567     1.0     0.486207      0.403448      0.541380     Biso  1.000000 Au
   Au3568     1.0     0.486207      0.431035      0.513793     Biso  1.000000 Au
   Au3569     1.0     0.513793      0.403448      0.513793     Biso  1.000000 Au
   Au3570     1.0     0.513793      0.431035      0.541380     Biso  1.000000 Au
   Au3571     1.0     0.541380      0.403448      0.541380     Biso  1.000000 Au
   Au3572     1.0     0.541380      0.431035      0.513793     Biso  1.000000 Au
   Au3573     1.0     0.568965      0.403448      0.513793     Biso  1.000000 Au
   Au3574     1.0     0.568965      0.431035      0.541380     Biso  1.000000 Au
   Au3575     1.0     0.596551      0.403448      0.541380     Biso  1.000000 Au
   Au3576     1.0     0.596551      0.431035      0.513793     Biso  1.000000 Au
   Au3577     1.0     0.624138      0.403448      0.513793     Biso  1.000000 Au
   Au3578     1.0     0.624138      0.431035      0.541380     Biso  1.000000 Au
   Au3579     1.0     0.651725      0.403448      0.541380     Biso  1.000000 Au
   Au3580     1.0     0.651725      0.431035      0.513793     Biso  1.000000 Au
   Au3581     1.0     0.679310      0.403448      0.513793     Biso  1.000000 Au
   Au3582     1.0     0.679310      0.431035      0.541380     Biso  1.000000 Au
   Au3583     1.0     0.706897      0.403448      0.541380     Biso  1.000000 Au
   Au3584     1.0     0.706897      0.431035      0.513793     Biso  1.000000 Au
   Au3585     1.0     0.734483      0.403448      0.513793     Biso  1.000000 Au
   Au3586     1.0     0.734483      0.431035      0.541380     Biso  1.000000 Au
   Au3587     1.0     0.762070      0.403448      0.541380     Biso  1.000000 Au
   Au3588     1.0     0.762070      0.431035      0.513793     Biso  1.000000 Au
   Au3589     1.0     0.789655      0.403448      0.513793     Biso  1.000000 Au
   Au3590     1.0     0.789655      0.431035      0.541380     Biso  1.000000 Au
   Au3591     1.0     0.817242      0.403448      0.541380     Biso  1.000000 Au
   Au3592     1.0     0.817242      0.431035      0.513793     Biso  1.000000 Au
   Au3593     1.0     0.844828      0.403448      0.513793     Biso  1.000000 Au
   Au3594     1.0     0.844828      0.431035      0.541380     Biso  1.000000 Au
   Au3595     1.0     0.872413      0.403448      0.541380     Biso  1.000000 Au
   Au3596     1.0     0.872413      0.431035      0.513793     Biso  1.000000 Au
   Au3597     1.0     0.100000      0.458620      0.541380     Biso  1.000000 Au
   Au3598     1.0     0.100000      0.486207      0.513793     Biso  1.000000 Au
   Au3599     1.0     0.127586      0.458620      0.513793     Biso  1.000000 Au
   Au3600     1.0     0.127586      0.486207      0.541380     Biso  1.000000 Au
   Au3601     1.0     0.155171      0.458620      0.541380     Biso  1.000000 Au
   Au3602     1.0     0.155171      0.486207      0.513793     Biso  1.000000 Au
   Au3603     1.0     0.182758      0.458620      0.513793     Biso  1.000000 Au
   Au3604     1.0     0.182758      0.486207      0.541380     Biso  1.000000 Au
   Au3605     1.0     0.210345      0.458620      0.541380     Biso  1.000000 Au
   Au3606     1.0     0.210345      0.486207      0.513793     Biso  1.000000 Au
   Au3607     1.0     0.237930      0.458620      0.513793     Biso  1.000000 Au
   Au3608     1.0     0.237930      0.486207      0.541380     Biso  1.000000 Au
   Au3609     1.0     0.265517      0.458620      0.541380     Biso  1.000000 Au
   Au3610     1.0     0.265517      0.486207      0.513793     Biso  1.000000 Au
   Au3611     1.0     0.293103      0.458620      0.513793     Biso  1.000000 Au
   Au3612     1.0     0.293103      0.486207      0.541380     Biso  1.000000 Au
   Au3613     1.0     0.320690      0.458620      0.541380     Biso  1.000000 Au
   Au3614     1.0     0.320690      0.486207      0.513793     Biso  1.000000 Au
   Au3615     1.0     0.348275      0.458620      0.513793     Biso  1.000000 Au
   Au3616     1.0     0.348275      0.486207      0.541380     Biso  1.000000 Au
   Au3617     1.0     0.375862      0.458620      0.541380     Biso  1.000000 Au
   Au3618     1.0     0.375862      0.486207      0.513793     Biso  1.000000 Au
   Au3619     1.0     0.403448      0.458620      0.513793     Biso  1.000000 Au
   Au3620     1.0     0.403448      0.486207      0.541380     Biso  1.000000 Au
   Au3621     1.0     0.431035      0.458620      0.541380     Biso  1.000000 Au
   Au3622     1.0     0.431035      0.486207      0.513793     Biso  1.000000 Au
   Au3623     1.0     0.458620      0.458620      0.513793     Biso  1.000000 Au
   Au3624     1.0     0.458620      0.486207      0.541380     Biso  1.000000 Au
   Au3625     1.0     0.486207      0.458620      0.541380     Biso  1.000000 Au
   Au3626     1.0     0.486207      0.486207      0.513793     Biso  1.000000 Au
   Au3627     1.0     0.513793      0.458620      0.513793     Biso  1.000000 Au
   Au3628     1.0     0.513793      0.486207      0.541380     Biso  1.000000 Au
   Au3629     1.0     0.541380      0.458620      0.541380     Biso  1.000000 Au
   Au3630     1.0     0.541380      0.486207      0.513793     Biso  1.000000 Au
   Au3631     1.0     0.568965      0.458620      0.513793     Biso  1.000000 Au
   Au3632     1.0     0.568965      0.486207      0.541380     Biso  1.000000 Au
   Au3633     1.0     0.596551      0.458620      0.541380     Biso  1.000000 Au
   Au3634     1.0     0.596551      0.486207      0.513793     Biso  1.000000 Au
   Au3635     1.0     0.624138      0.458620      0.513793     Biso  1.000000 Au
   Au3636     1.0     0.624138      0.486207      0.541380     Biso  1.000000 Au
   Au3637     1.0     0.651725      0.458620      0.541380     Biso  1.000000 Au
   Au3638     1.0     0.651725      0.486207      0.513793     Biso  1.000000 Au
   Au3639     1.0     0.679310      0.458620      0.513793     Biso  1.000000 Au
   Au3640     1.0     0.679310      0.486207      0.541380     Biso  1.000000 Au
   Au3641     1.0     0.706897      0.458620      0.541380     Biso  1.000000 Au
   Au3642     1.0     0.706897      0.486207      0.513793     Biso  1.000000 Au
   Au3643     1.0     0.734483      0.458620      0.513793     Biso  1.000000 Au
   Au3644     1.0     0.734483      0.486207      0.541380     Biso  1.000000 Au
   Au3645     1.0     0.762070      0.458620      0.541380     Biso  1.000000 Au
   Au3646     1.0     0.762070      0.486207      0.513793     Biso  1.000000 Au
   Au3647     1.0     0.789655      0.458620      0.513793     Biso  1.000000 Au
   Au3648     1.0     0.789655      0.486207      0.541380     Biso  1.000000 Au
   Au3649     1.0     0.817242      0.458620      0.541380     Biso  1.000000 Au
   Au3650     1.0     0.817242      0.486207      0.513793     Biso  1.000000 Au
   Au3651     1.0     0.844828      0.458620      0.513793     Biso  1.000000 Au
   Au3652     1.0     0.844828      0.486207      0.541380     Biso  1.000000 Au
   Au3653     1.0     0.872413      0.458620      0.541380     Biso  1.000000 Au
   Au3654     1.0     0.872413      0.486207      0.513793     Biso  1.000000 Au
   Au3655     1.0     0.900000      0.458620      0.513793     Biso  1.000000 Au
   Au3656     1.0     0.900000      0.486207      0.541380     Biso  1.000000 Au
   Au3657     1.0     0.100000      0.513793      0.541380     Biso  1.000000 Au
   Au3658     1.0     0.100000      0.541380      0.513793     Biso  1.000000 Au
   Au3659     1.0     0.127586      0.513793      0.513793     Biso  1.000000 Au
   Au3660     1.0     0.127586      0.541380      0.541380     Biso  1.000000 Au
   Au3661     1.0     0.155171      0.513793      0.541380     Biso  1.000000 Au
   Au3662     1.0     0.155171      0.541380      0.513793     Biso  1.000000 Au
   Au3663     1.0     0.182758      0.513793      0.513793     Biso  1.000000 Au
   Au3664     1.0     0.182758      0.541380      0.541380     Biso  1.000000 Au
   Au3665     1.0     0.210345      0.513793      0.541380     Biso  1.000000 Au
   Au3666     1.0     0.210345      0.541380      0.513793     Biso  1.000000 Au
   Au3667     1.0     0.237930      0.513793      0.513793     Biso  1.000000 Au
   Au3668     1.0     0.237930      0.541380      0.541380     Biso  1.000000 Au
   Au3669     1.0     0.265517      0.513793      0.541380     Biso  1.000000 Au
   Au3670     1.0     0.265517      0.541380      0.513793     Biso  1.000000 Au
   Au3671     1.0     0.293103      0.513793      0.513793     Biso  1.000000 Au
   Au3672     1.0     0.293103      0.541380      0.541380     Biso  1.000000 Au
   Au3673     1.0     0.320690      0.513793      0.541380     Biso  1.000000 Au
   Au3674     1.0     0.320690      0.541380      0.513793     Biso  1.000000 Au
   Au3675     1.0     0.348275      0.513793      0.513793     Biso  1.000000 Au
   Au3676     1.0     0.348275      0.541380      0.541380     Biso  1.000000 Au
   Au3677     1.0     0.375862      0.513793      0.541380     Biso  1.000000 Au
   Au3678     1.0     0.375862      0.541380      0.513793     Biso  1.000000 Au
   Au3679     1.0     0.403448      0.513793      0.513793     Biso  1.000000 Au
   Au3680     1.0     0.403448      0.541380      0.541380     Biso  1.000000 Au
   Au3681     1.0     0.431035      0.513793      0.541380     Biso  1.000000 Au
   Au3682     1.0     0.431035      0.541380      0.513793     Biso  1.000000 Au
   Au3683     1.0     0.458620      0.513793      0.513793     Biso  1.000000 Au
   Au3684     1.0     0.458620      0.541380      0.541380     Biso  1.000000 Au
   Au3685     1.0     0.486207      0.513793      0.541380     Biso  1.000000 Au
   Au3686     1.0     0.486207      0.541380      0.513793     Biso  1.000000 Au
   Au3687     1.0     0.513793      0.513793      0.513793     Biso  1.000000 Au
   Au3688     1.0     0.513793      0.541380      0.541380     Biso  1.000000 Au
   Au3689     1.0     0.541380      0.513793      0.541380     Biso  1.000000 Au
   Au3690     1.0     0.541380      0.541380      0.513793     Biso  1.000000 Au
   Au3691     1.0     0.568965      0.513793      0.513793     Biso  1.000000 Au
   Au3692     1.0     0.568965      0.541380      0.541380     Biso  1.000000 Au
   Au3693     1.0     0.596551      0.513793      0.541380     Biso  1.000000 Au
   Au3694     1.0     0.596551      0.541380      0.513793     Biso  1.000000 Au
   Au3695     1.0     0.624138      0.513793      0.513793     Biso  1.000000 Au
   Au3696     1.0     0.624138      0.541380      0.541380     Biso  1.000000 Au
   Au3697     1.0     0.651725      0.513793      0.541380     Biso  1.000000 Au
   Au3698     1.0     0.651725      0.541380      0.513793     Biso  1.000000 Au
   Au3699     1.0     0.679310      0.513793      0.513793     Biso  1.000000 Au
   Au3700     1.0     0.679310      0.541380      0.541380     Biso  1.000000 Au
   Au3701     1.0     0.706897      0.513793      0.541380     Biso  1.000000 Au
   Au3702     1.0     0.706897      0.541380      0.513793     Biso  1.000000 Au
   Au3703     1.0     0.734483      0.513793      0.513793     Biso  1.000000 Au
   Au3704     1.0     0.734483      0.541380      0.541380     Biso  1.000000 Au
   Au3705     1.0     0.762070      0.513793      0.541380     Biso  1.000000 Au
   Au3706     1.0     0.762070      0.541380      0.513793     Biso  1.000000 Au
   Au3707     1.0     0.789655      0.513793      0.513793     Biso  1.000000 Au
   Au3708     1.0     0.789655      0.541380      0.541380     Biso  1.000000 Au
   Au3709     1.0     0.817242      0.513793      0.541380     Biso  1.000000 Au
   Au3710     1.0     0.817242      0.541380      0.513793     Biso  1.000000 Au
   Au3711     1.0     0.844828      0.513793      0.513793     Biso  1.000000 Au
   Au3712     1.0     0.844828      0.541380      0.541380     Biso  1.000000 Au
   Au3713     1.0     0.872413      0.513793      0.541380     Biso  1.000000 Au
   Au3714     1.0     0.872413      0.541380      0.513793     Biso  1.000000 Au
   Au3715     1.0     0.900000      0.513793      0.513793     Biso  1.000000 Au
   Au3716     1.0     0.900000      0.541380      0.541380     Biso  1.000000 Au
   Au3717     1.0     0.127586      0.568965      0.513793     Biso  1.000000 Au
   Au3718     1.0     0.127586      0.596551      0.541380     Biso  1.000000 Au
   Au3719     1.0     0.155171      0.568965      0.541380     Biso  1.000000 Au
   Au3720     1.0     0.155171      0.596551      0.513793     Biso  1.000000 Au
   Au3721     1.0     0.182758      0.568965      0.513793     Biso  1.000000 Au
   Au3722     1.0     0.182758      0.596551      0.541380     Biso  1.000000 Au
   Au3723     1.0     0.210345      0.568965      0.541380     Biso  1.000000 Au
   Au3724     1.0     0.210345      0.596551      0.513793     Biso  1.000000 Au
   Au3725     1.0     0.237930      0.568965      0.513793     Biso  1.000000 Au
   Au3726     1.0     0.237930      0.596551      0.541380     Biso  1.000000 Au
   Au3727     1.0     0.265517      0.568965      0.541380     Biso  1.000000 Au
   Au3728     1.0     0.265517      0.596551      0.513793     Biso  1.000000 Au
   Au3729     1.0     0.293103      0.568965      0.513793     Biso  1.000000 Au
   Au3730     1.0     0.293103      0.596551      0.541380     Biso  1.000000 Au
   Au3731     1.0     0.320690      0.568965      0.541380     Biso  1.000000 Au
   Au3732     1.0     0.320690      0.596551      0.513793     Biso  1.000000 Au
   Au3733     1.0     0.348275      0.568965      0.513793     Biso  1.000000 Au
   Au3734     1.0     0.348275      0.596551      0.541380     Biso  1.000000 Au
   Au3735     1.0     0.375862      0.568965      0.541380     Biso  1.000000 Au
   Au3736     1.0     0.375862      0.596551      0.513793     Biso  1.000000 Au
   Au3737     1.0     0.403448      0.568965      0.513793     Biso  1.000000 Au
   Au3738     1.0     0.403448      0.596551      0.541380     Biso  1.000000 Au
   Au3739     1.0     0.431035      0.568965      0.541380     Biso  1.000000 Au
   Au3740     1.0     0.431035      0.596551      0.513793     Biso  1.000000 Au
   Au3741     1.0     0.458620      0.568965      0.513793     Biso  1.000000 Au
   Au3742     1.0     0.458620      0.596551      0.541380     Biso  1.000000 Au
   Au3743     1.0     0.486207      0.568965      0.541380     Biso  1.000000 Au
   Au3744     1.0     0.486207      0.596551      0.513793     Biso  1.000000 Au
   Au3745     1.0     0.513793      0.568965      0.513793     Biso  1.000000 Au
   Au3746     1.0     0.513793      0.596551      0.541380     Biso  1.000000 Au
   Au3747     1.0     0.541380      0.568965      0.541380     Biso  1.000000 Au
   Au3748     1.0     0.541380      0.596551      0.513793     Biso  1.000000 Au
   Au3749     1.0     0.568965      0.568965      0.513793     Biso  1.000000 Au
   Au3750     1.0     0.568965      0.596551      0.541380     Biso  1.000000 Au
   Au3751     1.0     0.596551      0.568965      0.541380     Biso  1.000000 Au
   Au3752     1.0     0.596551      0.596551      0.513793     Biso  1.000000 Au
   Au3753     1.0     0.624138      0.568965      0.513793     Biso  1.000000 Au
   Au3754     1.0     0.624138      0.596551      0.541380     Biso  1.000000 Au
   Au3755     1.0     0.651725      0.568965      0.541380     Biso  1.000000 Au
   Au3756     1.0     0.651725      0.596551      0.513793     Biso  1.000000 Au
   Au3757     1.0     0.679310      0.568965      0.513793     Biso  1.000000 Au
   Au3758     1.0     0.679310      0.596551      0.541380     Biso  1.000000 Au
   Au3759     1.0     0.706897      0.568965      0.541380     Biso  1.000000 Au
   Au3760     1.0     0.706897      0.596551      0.513793     Biso  1.000000 Au
   Au3761     1.0     0.734483      0.568965      0.513793     Biso  1.000000 Au
   Au3762     1.0     0.734483      0.596551      0.541380     Biso  1.000000 Au
   Au3763     1.0     0.762070      0.568965      0.541380     Biso  1.000000 Au
   Au3764     1.0     0.762070      0.596551      0.513793     Biso  1.000000 Au
   Au3765     1.0     0.789655      0.568965      0.513793     Biso  1.000000 Au
   Au3766     1.0     0.789655      0.596551      0.541380     Biso  1.000000 Au
   Au3767     1.0     0.817242      0.568965      0.541380     Biso  1.000000 Au
   Au3768     1.0     0.817242      0.596551      0.513793     Biso  1.000000 Au
   Au3769     1.0     0.844828      0.568965      0.513793     Biso  1.000000 Au
   Au3770     1.0     0.844828      0.596551      0.541380     Biso  1.000000 Au
   Au3771     1.0     0.872413      0.568965      0.541380     Biso  1.000000 Au
   Au3772     1.0     0.872413      0.596551      0.513793     Biso  1.000000 Au
   Au3773     1.0     0.127586      0.624138      0.513793     Biso  1.000000 Au
   Au3774     1.0     0.127586      0.651725      0.541380     Biso  1.000000 Au
   Au3775     1.0     0.155171      0.624138      0.541380     Biso  1.000000 Au
   Au3776     1.0     0.155171      0.651725      0.513793     Biso  1.000000 Au
   Au3777     1.0     0.182758      0.624138      0.513793     Biso  1.000000 Au
   Au3778     1.0     0.182758      0.651725      0.541380     Biso  1.000000 Au
   Au3779     1.0     0.210345      0.624138      0.541380     Biso  1.000000 Au
   Au3780     1.0     0.210345      0.651725      0.513793     Biso  1.000000 Au
   Au3781     1.0     0.237930      0.624138      0.513793     Biso  1.000000 Au
   Au3782     1.0     0.237930      0.651725      0.541380     Biso  1.000000 Au
   Au3783     1.0     0.265517      0.624138      0.541380     Biso  1.000000 Au
   Au3784     1.0     0.265517      0.651725      0.513793     Biso  1.000000 Au
   Au3785     1.0     0.293103      0.624138      0.513793     Biso  1.000000 Au
   Au3786     1.0     0.293103      0.651725      0.541380     Biso  1.000000 Au
   Au3787     1.0     0.320690      0.624138      0.541380     Biso  1.000000 Au
   Au3788     1.0     0.320690      0.651725      0.513793     Biso  1.000000 Au
   Au3789     1.0     0.348275      0.624138      0.513793     Biso  1.000000 Au
   Au3790     1.0     0.348275      0.651725      0.541380     Biso  1.000000 Au
   Au3791     1.0     0.375862      0.624138      0.541380     Biso  1.000000 Au
   Au3792     1.0     0.375862      0.651725      0.513793     Biso  1.000000 Au
   Au3793     1.0     0.403448      0.624138      0.513793     Biso  1.000000 Au
   Au3794     1.0     0.403448      0.651725      0.541380     Biso  1.000000 Au
   Au3795     1.0     0.431035      0.624138      0.541380     Biso  1.000000 Au
   Au3796     1.0     0.431035      0.651725      0.513793     Biso  1.000000 Au
   Au3797     1.0     0.458620      0.624138      0.513793     Biso  1.000000 Au
   Au3798     1.0     0.458620      0.651725      0.541380     Biso  1.000000 Au
   Au3799     1.0     0.486207      0.624138      0.541380     Biso  1.000000 Au
   Au3800     1.0     0.486207      0.651725      0.513793     Biso  1.000000 Au
   Au3801     1.0     0.513793      0.624138      0.513793     Biso  1.000000 Au
   Au3802     1.0     0.513793      0.651725      0.541380     Biso  1.000000 Au
   Au3803     1.0     0.541380      0.624138      0.541380     Biso  1.000000 Au
   Au3804     1.0     0.541380      0.651725      0.513793     Biso  1.000000 Au
   Au3805     1.0     0.568965      0.624138      0.513793     Biso  1.000000 Au
   Au3806     1.0     0.568965      0.651725      0.541380     Biso  1.000000 Au
   Au3807     1.0     0.596551      0.624138      0.541380     Biso  1.000000 Au
   Au3808     1.0     0.596551      0.651725      0.513793     Biso  1.000000 Au
   Au3809     1.0     0.624138      0.624138      0.513793     Biso  1.000000 Au
   Au3810     1.0     0.624138      0.651725      0.541380     Biso  1.000000 Au
   Au3811     1.0     0.651725      0.624138      0.541380     Biso  1.000000 Au
   Au3812     1.0     0.651725      0.651725      0.513793     Biso  1.000000 Au
   Au3813     1.0     0.679310      0.624138      0.513793     Biso  1.000000 Au
   Au3814     1.0     0.679310      0.651725      0.541380     Biso  1.000000 Au
   Au3815     1.0     0.706897      0.624138      0.541380     Biso  1.000000 Au
   Au3816     1.0     0.706897      0.651725      0.513793     Biso  1.000000 Au
   Au3817     1.0     0.734483      0.624138      0.513793     Biso  1.000000 Au
   Au3818     1.0     0.734483      0.651725      0.541380     Biso  1.000000 Au
   Au3819     1.0     0.762070      0.624138      0.541380     Biso  1.000000 Au
   Au3820     1.0     0.762070      0.651725      0.513793     Biso  1.000000 Au
   Au3821     1.0     0.789655      0.624138      0.513793     Biso  1.000000 Au
   Au3822     1.0     0.789655      0.651725      0.541380     Biso  1.000000 Au
   Au3823     1.0     0.817242      0.624138      0.541380     Biso  1.000000 Au
   Au3824     1.0     0.817242      0.651725      0.513793     Biso  1.000000 Au
   Au3825     1.0     0.844828      0.624138      0.513793     Biso  1.000000 Au
   Au3826     1.0     0.844828      0.651725      0.541380     Biso  1.000000 Au
   Au3827     1.0     0.872413      0.624138      0.541380     Biso  1.000000 Au
   Au3828     1.0     0.872413      0.651725      0.513793     Biso  1.000000 Au
   Au3829     1.0     0.155171      0.679310      0.541380     Biso  1.000000 Au
   Au3830     1.0     0.155171      0.706897      0.513793     Biso  1.000000 Au
   Au3831     1.0     0.182758      0.679310      0.513793     Biso  1.000000 Au
   Au3832     1.0     0.182758      0.706897      0.541380     Biso  1.000000 Au
   Au3833     1.0     0.210345      0.679310      0.541380     Biso  1.000000 Au
   Au3834     1.0     0.210345      0.706897      0.513793     Biso  1.000000 Au
   Au3835     1.0     0.237930      0.679310      0.513793     Biso  1.000000 Au
   Au3836     1.0     0.237930      0.706897      0.541380     Biso  1.000000 Au
   Au3837     1.0     0.265517      0.679310      0.541380     Biso  1.000000 Au
   Au3838     1.0     0.265517      0.706897      0.513793     Biso  1.000000 Au
   Au3839     1.0     0.293103      0.679310      0.513793     Biso  1.000000 Au
   Au3840     1.0     0.293103      0.706897      0.541380     Biso  1.000000 Au
   Au3841     1.0     0.320690      0.679310      0.541380     Biso  1.000000 Au
   Au3842     1.0     0.320690      0.706897      0.513793     Biso  1.000000 Au
   Au3843     1.0     0.348275      0.679310      0.513793     Biso  1.000000 Au
   Au3844     1.0     0.348275      0.706897      0.541380     Biso  1.000000 Au
   Au3845     1.0     0.375862      0.679310      0.541380     Biso  1.000000 Au
   Au3846     1.0     0.375862      0.706897      0.513793     Biso  1.000000 Au
   Au3847     1.0     0.403448      0.679310      0.513793     Biso  1.000000 Au
   Au3848     1.0     0.403448      0.706897      0.541380     Biso  1.000000 Au
   Au3849     1.0     0.431035      0.679310      0.541380     Biso  1.000000 Au
   Au3850     1.0     0.431035      0.706897      0.513793     Biso  1.000000 Au
   Au3851     1.0     0.458620      0.679310      0.513793     Biso  1.000000 Au
   Au3852     1.0     0.458620      0.706897      0.541380     Biso  1.000000 Au
   Au3853     1.0     0.486207      0.679310      0.541380     Biso  1.000000 Au
   Au3854     1.0     0.486207      0.706897      0.513793     Biso  1.000000 Au
   Au3855     1.0     0.513793      0.679310      0.513793     Biso  1.000000 Au
   Au3856     1.0     0.513793      0.706897      0.541380     Biso  1.000000 Au
   Au3857     1.0     0.541380      0.679310      0.541380     Biso  1.000000 Au
   Au3858     1.0     0.541380      0.706897      0.513793     Biso  1.000000 Au
   Au3859     1.0     0.568965      0.679310      0.513793     Biso  1.000000 Au
   Au3860     1.0     0.568965      0.706897      0.541380     Biso  1.000000 Au
   Au3861     1.0     0.596551      0.679310      0.541380     Biso  1.000000 Au
   Au3862     1.0     0.596551      0.706897      0.513793     Biso  1.000000 Au
   Au3863     1.0     0.624138      0.679310      0.513793     Biso  1.000000 Au
   Au3864     1.0     0.624138      0.706897      0.541380     Biso  1.000000 Au
   Au3865     1.0     0.651725      0.679310      0.541380     Biso  1.000000 Au
   Au3866     1.0     0.651725      0.706897      0.513793     Biso  1.000000 Au
   Au3867     1.0     0.679310      0.679310      0.513793     Biso  1.000000 Au
   Au3868     1.0     0.679310      0.706897      0.541380     Biso  1.000000 Au
   Au3869     1.0     0.706897      0.679310      0.541380     Biso  1.000000 Au
   Au3870     1.0     0.706897      0.706897      0.513793     Biso  1.000000 Au
   Au3871     1.0     0.734483      0.679310      0.513793     Biso  1.000000 Au
   Au3872     1.0     0.734483      0.706897      0.541380     Biso  1.000000 Au
   Au3873     1.0     0.762070      0.679310      0.541380     Biso  1.000000 Au
   Au3874     1.0     0.762070      0.706897      0.513793     Biso  1.000000 Au
   Au3875     1.0     0.789655      0.679310      0.513793     Biso  1.000000 Au
   Au3876     1.0     0.789655      0.706897      0.541380     Biso  1.000000 Au
   Au3877     1.0     0.817242      0.679310      0.541380     Biso  1.000000 Au
   Au3878     1.0     0.817242      0.706897      0.513793     Biso  1.000000 Au
   Au3879     1.0     0.844828      0.679310      0.513793     Biso  1.000000 Au
   Au3880     1.0     0.844828      0.706897      0.541380     Biso  1.000000 Au
   Au3881     1.0     0.182758      0.734483      0.513793     Biso  1.000000 Au
   Au3882     1.0     0.210345      0.734483      0.541380     Biso  1.000000 Au
   Au3883     1.0     0.210345      0.762070      0.513793     Biso  1.000000 Au
   Au3884     1.0     0.237930      0.734483      0.513793     Biso  1.000000 Au
   Au3885     1.0     0.237930      0.762070      0.541380     Biso  1.000000 Au
   Au3886     1.0     0.265517      0.734483      0.541380     Biso  1.000000 Au
   Au3887     1.0     0.265517      0.762070      0.513793     Biso  1.000000 Au
   Au3888     1.0     0.293103      0.734483      0.513793     Biso  1.000000 Au
   Au3889     1.0     0.293103      0.762070      0.541380     Biso  1.000000 Au
   Au3890     1.0     0.320690      0.734483      0.541380     Biso  1.000000 Au
   Au3891     1.0     0.320690      0.762070      0.513793     Biso  1.000000 Au
   Au3892     1.0     0.348275      0.734483      0.513793     Biso  1.000000 Au
   Au3893     1.0     0.348275      0.762070      0.541380     Biso  1.000000 Au
   Au3894     1.0     0.375862      0.734483      0.541380     Biso  1.000000 Au
   Au3895     1.0     0.375862      0.762070      0.513793     Biso  1.000000 Au
   Au3896     1.0     0.403448      0.734483      0.513793     Biso  1.000000 Au
   Au3897     1.0     0.403448      0.762070      0.541380     Biso  1.000000 Au
   Au3898     1.0     0.431035      0.734483      0.541380     Biso  1.000000 Au
   Au3899     1.0     0.431035      0.762070      0.513793     Biso  1.000000 Au
   Au3900     1.0     0.458620      0.734483      0.513793     Biso  1.000000 Au
   Au3901     1.0     0.458620      0.762070      0.541380     Biso  1.000000 Au
   Au3902     1.0     0.486207      0.734483      0.541380     Biso  1.000000 Au
   Au3903     1.0     0.486207      0.762070      0.513793     Biso  1.000000 Au
   Au3904     1.0     0.513793      0.734483      0.513793     Biso  1.000000 Au
   Au3905     1.0     0.513793      0.762070      0.541380     Biso  1.000000 Au
   Au3906     1.0     0.541380      0.734483      0.541380     Biso  1.000000 Au
   Au3907     1.0     0.541380      0.762070      0.513793     Biso  1.000000 Au
   Au3908     1.0     0.568965      0.734483      0.513793     Biso  1.000000 Au
   Au3909     1.0     0.568965      0.762070      0.541380     Biso  1.000000 Au
   Au3910     1.0     0.596551      0.734483      0.541380     Biso  1.000000 Au
   Au3911     1.0     0.596551      0.762070      0.513793     Biso  1.000000 Au
   Au3912     1.0     0.624138      0.734483      0.513793     Biso  1.000000 Au
   Au3913     1.0     0.624138      0.762070      0.541380     Biso  1.000000 Au
   Au3914     1.0     0.651725      0.734483      0.541380     Biso  1.000000 Au
   Au3915     1.0     0.651725      0.762070      0.513793     Biso  1.000000 Au
   Au3916     1.0     0.679310      0.734483      0.513793     Biso  1.000000 Au
   Au3917     1.0     0.679310      0.762070      0.541380     Biso  1.000000 Au
   Au3918     1.0     0.706897      0.734483      0.541380     Biso  1.000000 Au
   Au3919     1.0     0.706897      0.762070      0.513793     Biso  1.000000 Au
   Au3920     1.0     0.734483      0.734483      0.513793     Biso  1.000000 Au
   Au3921     1.0     0.734483      0.762070      0.541380     Biso  1.000000 Au
   Au3922     1.0     0.762070      0.734483      0.541380     Biso  1.000000 Au
   Au3923     1.0     0.762070      0.762070      0.513793     Biso  1.000000 Au
   Au3924     1.0     0.789655      0.734483      0.513793     Biso  1.000000 Au
   Au3925     1.0     0.789655      0.762070      0.541380     Biso  1.000000 Au
   Au3926     1.0     0.817242      0.734483      0.541380     Biso  1.000000 Au
   Au3927     1.0     0.237930      0.789655      0.513793     Biso  1.000000 Au
   Au3928     1.0     0.265517      0.789655      0.541380     Biso  1.000000 Au
   Au3929     1.0     0.265517      0.817242      0.513793     Biso  1.000000 Au
   Au3930     1.0     0.293103      0.789655      0.513793     Biso  1.000000 Au
   Au3931     1.0     0.293103      0.817242      0.541380     Biso  1.000000 Au
   Au3932     1.0     0.320690      0.789655      0.541380     Biso  1.000000 Au
   Au3933     1.0     0.320690      0.817242      0.513793     Biso  1.000000 Au
   Au3934     1.0     0.348275      0.789655      0.513793     Biso  1.000000 Au
   Au3935     1.0     0.348275      0.817242      0.541380     Biso  1.000000 Au
   Au3936     1.0     0.375862      0.789655      0.541380     Biso  1.000000 Au
   Au3937     1.0     0.375862      0.817242      0.513793     Biso  1.000000 Au
   Au3938     1.0     0.403448      0.789655      0.513793     Biso  1.000000 Au
   Au3939     1.0     0.403448      0.817242      0.541380     Biso  1.000000 Au
   Au3940     1.0     0.431035      0.789655      0.541380     Biso  1.000000 Au
   Au3941     1.0     0.431035      0.817242      0.513793     Biso  1.000000 Au
   Au3942     1.0     0.458620      0.789655      0.513793     Biso  1.000000 Au
   Au3943     1.0     0.458620      0.817242      0.541380     Biso  1.000000 Au
   Au3944     1.0     0.486207      0.789655      0.541380     Biso  1.000000 Au
   Au3945     1.0     0.486207      0.817242      0.513793     Biso  1.000000 Au
   Au3946     1.0     0.513793      0.789655      0.513793     Biso  1.000000 Au
   Au3947     1.0     0.513793      0.817242      0.541380     Biso  1.000000 Au
   Au3948     1.0     0.541380      0.789655      0.541380     Biso  1.000000 Au
   Au3949     1.0     0.541380      0.817242      0.513793     Biso  1.000000 Au
   Au3950     1.0     0.568965      0.789655      0.513793     Biso  1.000000 Au
   Au3951     1.0     0.568965      0.817242      0.541380     Biso  1.000000 Au
   Au3952     1.0     0.596551      0.789655      0.541380     Biso  1.000000 Au
   Au3953     1.0     0.596551      0.817242      0.513793     Biso  1.000000 Au
   Au3954     1.0     0.624138      0.789655      0.513793     Biso  1.000000 Au
   Au3955     1.0     0.624138      0.817242      0.541380     Biso  1.000000 Au
   Au3956     1.0     0.651725      0.789655      0.541380     Biso  1.000000 Au
   Au3957     1.0     0.651725      0.817242      0.513793     Biso  1.000000 Au
   Au3958     1.0     0.679310      0.789655      0.513793     Biso  1.000000 Au
   Au3959     1.0     0.679310      0.817242      0.541380     Biso  1.000000 Au
   Au3960     1.0     0.706897      0.789655      0.541380     Biso  1.000000 Au
   Au3961     1.0     0.706897      0.817242      0.513793     Biso  1.000000 Au
   Au3962     1.0     0.734483      0.789655      0.513793     Biso  1.000000 Au
   Au3963     1.0     0.734483      0.817242      0.541380     Biso  1.000000 Au
   Au3964     1.0     0.762070      0.789655      0.541380     Biso  1.000000 Au
   Au3965     1.0     0.293103      0.844828      0.513793     Biso  1.000000 Au
   Au3966     1.0     0.320690      0.844828      0.541380     Biso  1.000000 Au
   Au3967     1.0     0.348275      0.844828      0.513793     Biso  1.000000 Au
   Au3968     1.0     0.348275      0.872413      0.541380     Biso  1.000000 Au
   Au3969     1.0     0.375862      0.844828      0.541380     Biso  1.000000 Au
   Au3970     1.0     0.375862      0.872413      0.513793     Biso  1.000000 Au
   Au3971     1.0     0.403448      0.844828      0.513793     Biso  1.000000 Au
   Au3972     1.0     0.403448      0.872413      0.541380     Biso  1.000000 Au
   Au3973     1.0     0.431035      0.844828      0.541380     Biso  1.000000 Au
   Au3974     1.0     0.431035      0.872413      0.513793     Biso  1.000000 Au
   Au3975     1.0     0.458620      0.844828      0.513793     Biso  1.000000 Au
   Au3976     1.0     0.458620      0.872413      0.541380     Biso  1.000000 Au
   Au3977     1.0     0.486207      0.844828      0.541380     Biso  1.000000 Au
   Au3978     1.0     0.486207      0.872413      0.513793     Biso  1.000000 Au
   Au3979     1.0     0.513793      0.844828      0.513793     Biso  1.000000 Au
   Au3980     1.0     0.513793      0.872413      0.541380     Biso  1.000000 Au
   Au3981     1.0     0.541380      0.844828      0.541380     Biso  1.000000 Au
   Au3982     1.0     0.541380      0.872413      0.513793     Biso  1.000000 Au
   Au3983     1.0     0.568965      0.844828      0.513793     Biso  1.000000 Au
   Au3984     1.0     0.568965      0.872413      0.541380     Biso  1.000000 Au
   Au3985     1.0     0.596551      0.844828      0.541380     Biso  1.000000 Au
   Au3986     1.0     0.596551      0.872413      0.513793     Biso  1.000000 Au
   Au3987     1.0     0.624138      0.844828      0.513793     Biso  1.000000 Au
   Au3988     1.0     0.624138      0.872413      0.541380     Biso  1.000000 Au
   Au3989     1.0     0.651725      0.844828      0.541380     Biso  1.000000 Au
   Au3990     1.0     0.651725      0.872413      0.513793     Biso  1.000000 Au
   Au3991     1.0     0.679310      0.844828      0.513793     Biso  1.000000 Au
   Au3992     1.0     0.706897      0.844828      0.541380     Biso  1.000000 Au
   Au3993     1.0     0.458620      0.900000      0.513793     Biso  1.000000 Au
   Au3994     1.0     0.486207      0.900000      0.541380     Biso  1.000000 Au
   Au3995     1.0     0.513793      0.900000      0.513793     Biso  1.000000 Au
   Au3996     1.0     0.541380      0.900000      0.541380     Biso  1.000000 Au
   Au3997     1.0     0.320690      0.155171      0.568965     Biso  1.000000 Au
   Au3998     1.0     0.348275      0.155171      0.596551     Biso  1.000000 Au
   Au3999     1.0     0.375862      0.127586      0.596551     Biso  1.000000 Au
   Au4000     1.0     0.375862      0.155171      0.568965     Biso  1.000000 Au
   Au4001     1.0     0.403448      0.127586      0.568965     Biso  1.000000 Au
   Au4002     1.0     0.403448      0.155171      0.596551     Biso  1.000000 Au
   Au4003     1.0     0.431035      0.127586      0.596551     Biso  1.000000 Au
   Au4004     1.0     0.431035      0.155171      0.568965     Biso  1.000000 Au
   Au4005     1.0     0.458620      0.127586      0.568965     Biso  1.000000 Au
   Au4006     1.0     0.458620      0.155171      0.596551     Biso  1.000000 Au
   Au4007     1.0     0.486207      0.127586      0.596551     Biso  1.000000 Au
   Au4008     1.0     0.486207      0.155171      0.568965     Biso  1.000000 Au
   Au4009     1.0     0.513793      0.127586      0.568965     Biso  1.000000 Au
   Au4010     1.0     0.513793      0.155171      0.596551     Biso  1.000000 Au
   Au4011     1.0     0.541380      0.127586      0.596551     Biso  1.000000 Au
   Au4012     1.0     0.541380      0.155171      0.568965     Biso  1.000000 Au
   Au4013     1.0     0.568965      0.127586      0.568965     Biso  1.000000 Au
   Au4014     1.0     0.568965      0.155171      0.596551     Biso  1.000000 Au
   Au4015     1.0     0.596551      0.127586      0.596551     Biso  1.000000 Au
   Au4016     1.0     0.596551      0.155171      0.568965     Biso  1.000000 Au
   Au4017     1.0     0.624138      0.127586      0.568965     Biso  1.000000 Au
   Au4018     1.0     0.624138      0.155171      0.596551     Biso  1.000000 Au
   Au4019     1.0     0.651725      0.155171      0.568965     Biso  1.000000 Au
   Au4020     1.0     0.679310      0.155171      0.596551     Biso  1.000000 Au
   Au4021     1.0     0.237930      0.210345      0.596551     Biso  1.000000 Au
   Au4022     1.0     0.265517      0.210345      0.568965     Biso  1.000000 Au
   Au4023     1.0     0.293103      0.182758      0.568965     Biso  1.000000 Au
   Au4024     1.0     0.293103      0.210345      0.596551     Biso  1.000000 Au
   Au4025     1.0     0.320690      0.182758      0.596551     Biso  1.000000 Au
   Au4026     1.0     0.320690      0.210345      0.568965     Biso  1.000000 Au
   Au4027     1.0     0.348275      0.182758      0.568965     Biso  1.000000 Au
   Au4028     1.0     0.348275      0.210345      0.596551     Biso  1.000000 Au
   Au4029     1.0     0.375862      0.182758      0.596551     Biso  1.000000 Au
   Au4030     1.0     0.375862      0.210345      0.568965     Biso  1.000000 Au
   Au4031     1.0     0.403448      0.182758      0.568965     Biso  1.000000 Au
   Au4032     1.0     0.403448      0.210345      0.596551     Biso  1.000000 Au
   Au4033     1.0     0.431035      0.182758      0.596551     Biso  1.000000 Au
   Au4034     1.0     0.431035      0.210345      0.568965     Biso  1.000000 Au
   Au4035     1.0     0.458620      0.182758      0.568965     Biso  1.000000 Au
   Au4036     1.0     0.458620      0.210345      0.596551     Biso  1.000000 Au
   Au4037     1.0     0.486207      0.182758      0.596551     Biso  1.000000 Au
   Au4038     1.0     0.486207      0.210345      0.568965     Biso  1.000000 Au
   Au4039     1.0     0.513793      0.182758      0.568965     Biso  1.000000 Au
   Au4040     1.0     0.513793      0.210345      0.596551     Biso  1.000000 Au
   Au4041     1.0     0.541380      0.182758      0.596551     Biso  1.000000 Au
   Au4042     1.0     0.541380      0.210345      0.568965     Biso  1.000000 Au
   Au4043     1.0     0.568965      0.182758      0.568965     Biso  1.000000 Au
   Au4044     1.0     0.568965      0.210345      0.596551     Biso  1.000000 Au
   Au4045     1.0     0.596551      0.182758      0.596551     Biso  1.000000 Au
   Au4046     1.0     0.596551      0.210345      0.568965     Biso  1.000000 Au
   Au4047     1.0     0.624138      0.182758      0.568965     Biso  1.000000 Au
   Au4048     1.0     0.624138      0.210345      0.596551     Biso  1.000000 Au
   Au4049     1.0     0.651725      0.182758      0.596551     Biso  1.000000 Au
   Au4050     1.0     0.651725      0.210345      0.568965     Biso  1.000000 Au
   Au4051     1.0     0.679310      0.182758      0.568965     Biso  1.000000 Au
   Au4052     1.0     0.679310      0.210345      0.596551     Biso  1.000000 Au
   Au4053     1.0     0.706897      0.182758      0.596551     Biso  1.000000 Au
   Au4054     1.0     0.706897      0.210345      0.568965     Biso  1.000000 Au
   Au4055     1.0     0.734483      0.182758      0.568965     Biso  1.000000 Au
   Au4056     1.0     0.734483      0.210345      0.596551     Biso  1.000000 Au
   Au4057     1.0     0.762070      0.210345      0.568965     Biso  1.000000 Au
   Au4058     1.0     0.210345      0.237930      0.596551     Biso  1.000000 Au
   Au4059     1.0     0.210345      0.265517      0.568965     Biso  1.000000 Au
   Au4060     1.0     0.237930      0.237930      0.568965     Biso  1.000000 Au
   Au4061     1.0     0.237930      0.265517      0.596551     Biso  1.000000 Au
   Au4062     1.0     0.265517      0.237930      0.596551     Biso  1.000000 Au
   Au4063     1.0     0.265517      0.265517      0.568965     Biso  1.000000 Au
   Au4064     1.0     0.293103      0.237930      0.568965     Biso  1.000000 Au
   Au4065     1.0     0.293103      0.265517      0.596551     Biso  1.000000 Au
   Au4066     1.0     0.320690      0.237930      0.596551     Biso  1.000000 Au
   Au4067     1.0     0.320690      0.265517      0.568965     Biso  1.000000 Au
   Au4068     1.0     0.348275      0.237930      0.568965     Biso  1.000000 Au
   Au4069     1.0     0.348275      0.265517      0.596551     Biso  1.000000 Au
   Au4070     1.0     0.375862      0.237930      0.596551     Biso  1.000000 Au
   Au4071     1.0     0.375862      0.265517      0.568965     Biso  1.000000 Au
   Au4072     1.0     0.403448      0.237930      0.568965     Biso  1.000000 Au
   Au4073     1.0     0.403448      0.265517      0.596551     Biso  1.000000 Au
   Au4074     1.0     0.431035      0.237930      0.596551     Biso  1.000000 Au
   Au4075     1.0     0.431035      0.265517      0.568965     Biso  1.000000 Au
   Au4076     1.0     0.458620      0.237930      0.568965     Biso  1.000000 Au
   Au4077     1.0     0.458620      0.265517      0.596551     Biso  1.000000 Au
   Au4078     1.0     0.486207      0.237930      0.596551     Biso  1.000000 Au
   Au4079     1.0     0.486207      0.265517      0.568965     Biso  1.000000 Au
   Au4080     1.0     0.513793      0.237930      0.568965     Biso  1.000000 Au
   Au4081     1.0     0.513793      0.265517      0.596551     Biso  1.000000 Au
   Au4082     1.0     0.541380      0.237930      0.596551     Biso  1.000000 Au
   Au4083     1.0     0.541380      0.265517      0.568965     Biso  1.000000 Au
   Au4084     1.0     0.568965      0.237930      0.568965     Biso  1.000000 Au
   Au4085     1.0     0.568965      0.265517      0.596551     Biso  1.000000 Au
   Au4086     1.0     0.596551      0.237930      0.596551     Biso  1.000000 Au
   Au4087     1.0     0.596551      0.265517      0.568965     Biso  1.000000 Au
   Au4088     1.0     0.624138      0.237930      0.568965     Biso  1.000000 Au
   Au4089     1.0     0.624138      0.265517      0.596551     Biso  1.000000 Au
   Au4090     1.0     0.651725      0.237930      0.596551     Biso  1.000000 Au
   Au4091     1.0     0.651725      0.265517      0.568965     Biso  1.000000 Au
   Au4092     1.0     0.679310      0.237930      0.568965     Biso  1.000000 Au
   Au4093     1.0     0.679310      0.265517      0.596551     Biso  1.000000 Au
   Au4094     1.0     0.706897      0.237930      0.596551     Biso  1.000000 Au
   Au4095     1.0     0.706897      0.265517      0.568965     Biso  1.000000 Au
   Au4096     1.0     0.734483      0.237930      0.568965     Biso  1.000000 Au
   Au4097     1.0     0.734483      0.265517      0.596551     Biso  1.000000 Au
   Au4098     1.0     0.762070      0.237930      0.596551     Biso  1.000000 Au
   Au4099     1.0     0.762070      0.265517      0.568965     Biso  1.000000 Au
   Au4100     1.0     0.789655      0.237930      0.568965     Biso  1.000000 Au
   Au4101     1.0     0.789655      0.265517      0.596551     Biso  1.000000 Au
   Au4102     1.0     0.817242      0.265517      0.568965     Biso  1.000000 Au
   Au4103     1.0     0.155171      0.320690      0.568965     Biso  1.000000 Au
   Au4104     1.0     0.182758      0.293103      0.568965     Biso  1.000000 Au
   Au4105     1.0     0.182758      0.320690      0.596551     Biso  1.000000 Au
   Au4106     1.0     0.210345      0.293103      0.596551     Biso  1.000000 Au
   Au4107     1.0     0.210345      0.320690      0.568965     Biso  1.000000 Au
   Au4108     1.0     0.237930      0.293103      0.568965     Biso  1.000000 Au
   Au4109     1.0     0.237930      0.320690      0.596551     Biso  1.000000 Au
   Au4110     1.0     0.265517      0.293103      0.596551     Biso  1.000000 Au
   Au4111     1.0     0.265517      0.320690      0.568965     Biso  1.000000 Au
   Au4112     1.0     0.293103      0.293103      0.568965     Biso  1.000000 Au
   Au4113     1.0     0.293103      0.320690      0.596551     Biso  1.000000 Au
   Au4114     1.0     0.320690      0.293103      0.596551     Biso  1.000000 Au
   Au4115     1.0     0.320690      0.320690      0.568965     Biso  1.000000 Au
   Au4116     1.0     0.348275      0.293103      0.568965     Biso  1.000000 Au
   Au4117     1.0     0.348275      0.320690      0.596551     Biso  1.000000 Au
   Au4118     1.0     0.375862      0.293103      0.596551     Biso  1.000000 Au
   Au4119     1.0     0.375862      0.320690      0.568965     Biso  1.000000 Au
   Au4120     1.0     0.403448      0.293103      0.568965     Biso  1.000000 Au
   Au4121     1.0     0.403448      0.320690      0.596551     Biso  1.000000 Au
   Au4122     1.0     0.431035      0.293103      0.596551     Biso  1.000000 Au
   Au4123     1.0     0.431035      0.320690      0.568965     Biso  1.000000 Au
   Au4124     1.0     0.458620      0.293103      0.568965     Biso  1.000000 Au
   Au4125     1.0     0.458620      0.320690      0.596551     Biso  1.000000 Au
   Au4126     1.0     0.486207      0.293103      0.596551     Biso  1.000000 Au
   Au4127     1.0     0.486207      0.320690      0.568965     Biso  1.000000 Au
   Au4128     1.0     0.513793      0.293103      0.568965     Biso  1.000000 Au
   Au4129     1.0     0.513793      0.320690      0.596551     Biso  1.000000 Au
   Au4130     1.0     0.541380      0.293103      0.596551     Biso  1.000000 Au
   Au4131     1.0     0.541380      0.320690      0.568965     Biso  1.000000 Au
   Au4132     1.0     0.568965      0.293103      0.568965     Biso  1.000000 Au
   Au4133     1.0     0.568965      0.320690      0.596551     Biso  1.000000 Au
   Au4134     1.0     0.596551      0.293103      0.596551     Biso  1.000000 Au
   Au4135     1.0     0.596551      0.320690      0.568965     Biso  1.000000 Au
   Au4136     1.0     0.624138      0.293103      0.568965     Biso  1.000000 Au
   Au4137     1.0     0.624138      0.320690      0.596551     Biso  1.000000 Au
   Au4138     1.0     0.651725      0.293103      0.596551     Biso  1.000000 Au
   Au4139     1.0     0.651725      0.320690      0.568965     Biso  1.000000 Au
   Au4140     1.0     0.679310      0.293103      0.568965     Biso  1.000000 Au
   Au4141     1.0     0.679310      0.320690      0.596551     Biso  1.000000 Au
   Au4142     1.0     0.706897      0.293103      0.596551     Biso  1.000000 Au
   Au4143     1.0     0.706897      0.320690      0.568965     Biso  1.000000 Au
   Au4144     1.0     0.734483      0.293103      0.568965     Biso  1.000000 Au
   Au4145     1.0     0.734483      0.320690      0.596551     Biso  1.000000 Au
   Au4146     1.0     0.762070      0.293103      0.596551     Biso  1.000000 Au
   Au4147     1.0     0.762070      0.320690      0.568965     Biso  1.000000 Au
   Au4148     1.0     0.789655      0.293103      0.568965     Biso  1.000000 Au
   Au4149     1.0     0.789655      0.320690      0.596551     Biso  1.000000 Au
   Au4150     1.0     0.817242      0.293103      0.596551     Biso  1.000000 Au
   Au4151     1.0     0.817242      0.320690      0.568965     Biso  1.000000 Au
   Au4152     1.0     0.844828      0.320690      0.596551     Biso  1.000000 Au
   Au4153     1.0     0.127586      0.375862      0.596551     Biso  1.000000 Au
   Au4154     1.0     0.155171      0.348275      0.596551     Biso  1.000000 Au
   Au4155     1.0     0.155171      0.375862      0.568965     Biso  1.000000 Au
   Au4156     1.0     0.182758      0.348275      0.568965     Biso  1.000000 Au
   Au4157     1.0     0.182758      0.375862      0.596551     Biso  1.000000 Au
   Au4158     1.0     0.210345      0.348275      0.596551     Biso  1.000000 Au
   Au4159     1.0     0.210345      0.375862      0.568965     Biso  1.000000 Au
   Au4160     1.0     0.237930      0.348275      0.568965     Biso  1.000000 Au
   Au4161     1.0     0.237930      0.375862      0.596551     Biso  1.000000 Au
   Au4162     1.0     0.265517      0.348275      0.596551     Biso  1.000000 Au
   Au4163     1.0     0.265517      0.375862      0.568965     Biso  1.000000 Au
   Au4164     1.0     0.293103      0.348275      0.568965     Biso  1.000000 Au
   Au4165     1.0     0.293103      0.375862      0.596551     Biso  1.000000 Au
   Au4166     1.0     0.320690      0.348275      0.596551     Biso  1.000000 Au
   Au4167     1.0     0.320690      0.375862      0.568965     Biso  1.000000 Au
   Au4168     1.0     0.348275      0.348275      0.568965     Biso  1.000000 Au
   Au4169     1.0     0.348275      0.375862      0.596551     Biso  1.000000 Au
   Au4170     1.0     0.375862      0.348275      0.596551     Biso  1.000000 Au
   Au4171     1.0     0.375862      0.375862      0.568965     Biso  1.000000 Au
   Au4172     1.0     0.403448      0.348275      0.568965     Biso  1.000000 Au
   Au4173     1.0     0.403448      0.375862      0.596551     Biso  1.000000 Au
   Au4174     1.0     0.431035      0.348275      0.596551     Biso  1.000000 Au
   Au4175     1.0     0.431035      0.375862      0.568965     Biso  1.000000 Au
   Au4176     1.0     0.458620      0.348275      0.568965     Biso  1.000000 Au
   Au4177     1.0     0.458620      0.375862      0.596551     Biso  1.000000 Au
   Au4178     1.0     0.486207      0.348275      0.596551     Biso  1.000000 Au
   Au4179     1.0     0.486207      0.375862      0.568965     Biso  1.000000 Au
   Au4180     1.0     0.513793      0.348275      0.568965     Biso  1.000000 Au
   Au4181     1.0     0.513793      0.375862      0.596551     Biso  1.000000 Au
   Au4182     1.0     0.541380      0.348275      0.596551     Biso  1.000000 Au
   Au4183     1.0     0.541380      0.375862      0.568965     Biso  1.000000 Au
   Au4184     1.0     0.568965      0.348275      0.568965     Biso  1.000000 Au
   Au4185     1.0     0.568965      0.375862      0.596551     Biso  1.000000 Au
   Au4186     1.0     0.596551      0.348275      0.596551     Biso  1.000000 Au
   Au4187     1.0     0.596551      0.375862      0.568965     Biso  1.000000 Au
   Au4188     1.0     0.624138      0.348275      0.568965     Biso  1.000000 Au
   Au4189     1.0     0.624138      0.375862      0.596551     Biso  1.000000 Au
   Au4190     1.0     0.651725      0.348275      0.596551     Biso  1.000000 Au
   Au4191     1.0     0.651725      0.375862      0.568965     Biso  1.000000 Au
   Au4192     1.0     0.679310      0.348275      0.568965     Biso  1.000000 Au
   Au4193     1.0     0.679310      0.375862      0.596551     Biso  1.000000 Au
   Au4194     1.0     0.706897      0.348275      0.596551     Biso  1.000000 Au
   Au4195     1.0     0.706897      0.375862      0.568965     Biso  1.000000 Au
   Au4196     1.0     0.734483      0.348275      0.568965     Biso  1.000000 Au
   Au4197     1.0     0.734483      0.375862      0.596551     Biso  1.000000 Au
   Au4198     1.0     0.762070      0.348275      0.596551     Biso  1.000000 Au
   Au4199     1.0     0.762070      0.375862      0.568965     Biso  1.000000 Au
   Au4200     1.0     0.789655      0.348275      0.568965     Biso  1.000000 Au
   Au4201     1.0     0.789655      0.375862      0.596551     Biso  1.000000 Au
   Au4202     1.0     0.817242      0.348275      0.596551     Biso  1.000000 Au
   Au4203     1.0     0.817242      0.375862      0.568965     Biso  1.000000 Au
   Au4204     1.0     0.844828      0.348275      0.568965     Biso  1.000000 Au
   Au4205     1.0     0.844828      0.375862      0.596551     Biso  1.000000 Au
   Au4206     1.0     0.872413      0.375862      0.568965     Biso  1.000000 Au
   Au4207     1.0     0.127586      0.403448      0.568965     Biso  1.000000 Au
   Au4208     1.0     0.127586      0.431035      0.596551     Biso  1.000000 Au
   Au4209     1.0     0.155171      0.403448      0.596551     Biso  1.000000 Au
   Au4210     1.0     0.155171      0.431035      0.568965     Biso  1.000000 Au
   Au4211     1.0     0.182758      0.403448      0.568965     Biso  1.000000 Au
   Au4212     1.0     0.182758      0.431035      0.596551     Biso  1.000000 Au
   Au4213     1.0     0.210345      0.403448      0.596551     Biso  1.000000 Au
   Au4214     1.0     0.210345      0.431035      0.568965     Biso  1.000000 Au
   Au4215     1.0     0.237930      0.403448      0.568965     Biso  1.000000 Au
   Au4216     1.0     0.237930      0.431035      0.596551     Biso  1.000000 Au
   Au4217     1.0     0.265517      0.403448      0.596551     Biso  1.000000 Au
   Au4218     1.0     0.265517      0.431035      0.568965     Biso  1.000000 Au
   Au4219     1.0     0.293103      0.403448      0.568965     Biso  1.000000 Au
   Au4220     1.0     0.293103      0.431035      0.596551     Biso  1.000000 Au
   Au4221     1.0     0.320690      0.403448      0.596551     Biso  1.000000 Au
   Au4222     1.0     0.320690      0.431035      0.568965     Biso  1.000000 Au
   Au4223     1.0     0.348275      0.403448      0.568965     Biso  1.000000 Au
   Au4224     1.0     0.348275      0.431035      0.596551     Biso  1.000000 Au
   Au4225     1.0     0.375862      0.403448      0.596551     Biso  1.000000 Au
   Au4226     1.0     0.375862      0.431035      0.568965     Biso  1.000000 Au
   Au4227     1.0     0.403448      0.403448      0.568965     Biso  1.000000 Au
   Au4228     1.0     0.403448      0.431035      0.596551     Biso  1.000000 Au
   Au4229     1.0     0.431035      0.403448      0.596551     Biso  1.000000 Au
   Au4230     1.0     0.431035      0.431035      0.568965     Biso  1.000000 Au
   Au4231     1.0     0.458620      0.403448      0.568965     Biso  1.000000 Au
   Au4232     1.0     0.458620      0.431035      0.596551     Biso  1.000000 Au
   Au4233     1.0     0.486207      0.403448      0.596551     Biso  1.000000 Au
   Au4234     1.0     0.486207      0.431035      0.568965     Biso  1.000000 Au
   Au4235     1.0     0.513793      0.403448      0.568965     Biso  1.000000 Au
   Au4236     1.0     0.513793      0.431035      0.596551     Biso  1.000000 Au
   Au4237     1.0     0.541380      0.403448      0.596551     Biso  1.000000 Au
   Au4238     1.0     0.541380      0.431035      0.568965     Biso  1.000000 Au
   Au4239     1.0     0.568965      0.403448      0.568965     Biso  1.000000 Au
   Au4240     1.0     0.568965      0.431035      0.596551     Biso  1.000000 Au
   Au4241     1.0     0.596551      0.403448      0.596551     Biso  1.000000 Au
   Au4242     1.0     0.596551      0.431035      0.568965     Biso  1.000000 Au
   Au4243     1.0     0.624138      0.403448      0.568965     Biso  1.000000 Au
   Au4244     1.0     0.624138      0.431035      0.596551     Biso  1.000000 Au
   Au4245     1.0     0.651725      0.403448      0.596551     Biso  1.000000 Au
   Au4246     1.0     0.651725      0.431035      0.568965     Biso  1.000000 Au
   Au4247     1.0     0.679310      0.403448      0.568965     Biso  1.000000 Au
   Au4248     1.0     0.679310      0.431035      0.596551     Biso  1.000000 Au
   Au4249     1.0     0.706897      0.403448      0.596551     Biso  1.000000 Au
   Au4250     1.0     0.706897      0.431035      0.568965     Biso  1.000000 Au
   Au4251     1.0     0.734483      0.403448      0.568965     Biso  1.000000 Au
   Au4252     1.0     0.734483      0.431035      0.596551     Biso  1.000000 Au
   Au4253     1.0     0.762070      0.403448      0.596551     Biso  1.000000 Au
   Au4254     1.0     0.762070      0.431035      0.568965     Biso  1.000000 Au
   Au4255     1.0     0.789655      0.403448      0.568965     Biso  1.000000 Au
   Au4256     1.0     0.789655      0.431035      0.596551     Biso  1.000000 Au
   Au4257     1.0     0.817242      0.403448      0.596551     Biso  1.000000 Au
   Au4258     1.0     0.817242      0.431035      0.568965     Biso  1.000000 Au
   Au4259     1.0     0.844828      0.403448      0.568965     Biso  1.000000 Au
   Au4260     1.0     0.844828      0.431035      0.596551     Biso  1.000000 Au
   Au4261     1.0     0.872413      0.403448      0.596551     Biso  1.000000 Au
   Au4262     1.0     0.872413      0.431035      0.568965     Biso  1.000000 Au
   Au4263     1.0     0.127586      0.458620      0.568965     Biso  1.000000 Au
   Au4264     1.0     0.127586      0.486207      0.596551     Biso  1.000000 Au
   Au4265     1.0     0.155171      0.458620      0.596551     Biso  1.000000 Au
   Au4266     1.0     0.155171      0.486207      0.568965     Biso  1.000000 Au
   Au4267     1.0     0.182758      0.458620      0.568965     Biso  1.000000 Au
   Au4268     1.0     0.182758      0.486207      0.596551     Biso  1.000000 Au
   Au4269     1.0     0.210345      0.458620      0.596551     Biso  1.000000 Au
   Au4270     1.0     0.210345      0.486207      0.568965     Biso  1.000000 Au
   Au4271     1.0     0.237930      0.458620      0.568965     Biso  1.000000 Au
   Au4272     1.0     0.237930      0.486207      0.596551     Biso  1.000000 Au
   Au4273     1.0     0.265517      0.458620      0.596551     Biso  1.000000 Au
   Au4274     1.0     0.265517      0.486207      0.568965     Biso  1.000000 Au
   Au4275     1.0     0.293103      0.458620      0.568965     Biso  1.000000 Au
   Au4276     1.0     0.293103      0.486207      0.596551     Biso  1.000000 Au
   Au4277     1.0     0.320690      0.458620      0.596551     Biso  1.000000 Au
   Au4278     1.0     0.320690      0.486207      0.568965     Biso  1.000000 Au
   Au4279     1.0     0.348275      0.458620      0.568965     Biso  1.000000 Au
   Au4280     1.0     0.348275      0.486207      0.596551     Biso  1.000000 Au
   Au4281     1.0     0.375862      0.458620      0.596551     Biso  1.000000 Au
   Au4282     1.0     0.375862      0.486207      0.568965     Biso  1.000000 Au
   Au4283     1.0     0.403448      0.458620      0.568965     Biso  1.000000 Au
   Au4284     1.0     0.403448      0.486207      0.596551     Biso  1.000000 Au
   Au4285     1.0     0.431035      0.458620      0.596551     Biso  1.000000 Au
   Au4286     1.0     0.431035      0.486207      0.568965     Biso  1.000000 Au
   Au4287     1.0     0.458620      0.458620      0.568965     Biso  1.000000 Au
   Au4288     1.0     0.458620      0.486207      0.596551     Biso  1.000000 Au
   Au4289     1.0     0.486207      0.458620      0.596551     Biso  1.000000 Au
   Au4290     1.0     0.486207      0.486207      0.568965     Biso  1.000000 Au
   Au4291     1.0     0.513793      0.458620      0.568965     Biso  1.000000 Au
   Au4292     1.0     0.513793      0.486207      0.596551     Biso  1.000000 Au
   Au4293     1.0     0.541380      0.458620      0.596551     Biso  1.000000 Au
   Au4294     1.0     0.541380      0.486207      0.568965     Biso  1.000000 Au
   Au4295     1.0     0.568965      0.458620      0.568965     Biso  1.000000 Au
   Au4296     1.0     0.568965      0.486207      0.596551     Biso  1.000000 Au
   Au4297     1.0     0.596551      0.458620      0.596551     Biso  1.000000 Au
   Au4298     1.0     0.596551      0.486207      0.568965     Biso  1.000000 Au
   Au4299     1.0     0.624138      0.458620      0.568965     Biso  1.000000 Au
   Au4300     1.0     0.624138      0.486207      0.596551     Biso  1.000000 Au
   Au4301     1.0     0.651725      0.458620      0.596551     Biso  1.000000 Au
   Au4302     1.0     0.651725      0.486207      0.568965     Biso  1.000000 Au
   Au4303     1.0     0.679310      0.458620      0.568965     Biso  1.000000 Au
   Au4304     1.0     0.679310      0.486207      0.596551     Biso  1.000000 Au
   Au4305     1.0     0.706897      0.458620      0.596551     Biso  1.000000 Au
   Au4306     1.0     0.706897      0.486207      0.568965     Biso  1.000000 Au
   Au4307     1.0     0.734483      0.458620      0.568965     Biso  1.000000 Au
   Au4308     1.0     0.734483      0.486207      0.596551     Biso  1.000000 Au
   Au4309     1.0     0.762070      0.458620      0.596551     Biso  1.000000 Au
   Au4310     1.0     0.762070      0.486207      0.568965     Biso  1.000000 Au
   Au4311     1.0     0.789655      0.458620      0.568965     Biso  1.000000 Au
   Au4312     1.0     0.789655      0.486207      0.596551     Biso  1.000000 Au
   Au4313     1.0     0.817242      0.458620      0.596551     Biso  1.000000 Au
   Au4314     1.0     0.817242      0.486207      0.568965     Biso  1.000000 Au
   Au4315     1.0     0.844828      0.458620      0.568965     Biso  1.000000 Au
   Au4316     1.0     0.844828      0.486207      0.596551     Biso  1.000000 Au
   Au4317     1.0     0.872413      0.458620      0.596551     Biso  1.000000 Au
   Au4318     1.0     0.872413      0.486207      0.568965     Biso  1.000000 Au
   Au4319     1.0     0.127586      0.513793      0.568965     Biso  1.000000 Au
   Au4320     1.0     0.127586      0.541380      0.596551     Biso  1.000000 Au
   Au4321     1.0     0.155171      0.513793      0.596551     Biso  1.000000 Au
   Au4322     1.0     0.155171      0.541380      0.568965     Biso  1.000000 Au
   Au4323     1.0     0.182758      0.513793      0.568965     Biso  1.000000 Au
   Au4324     1.0     0.182758      0.541380      0.596551     Biso  1.000000 Au
   Au4325     1.0     0.210345      0.513793      0.596551     Biso  1.000000 Au
   Au4326     1.0     0.210345      0.541380      0.568965     Biso  1.000000 Au
   Au4327     1.0     0.237930      0.513793      0.568965     Biso  1.000000 Au
   Au4328     1.0     0.237930      0.541380      0.596551     Biso  1.000000 Au
   Au4329     1.0     0.265517      0.513793      0.596551     Biso  1.000000 Au
   Au4330     1.0     0.265517      0.541380      0.568965     Biso  1.000000 Au
   Au4331     1.0     0.293103      0.513793      0.568965     Biso  1.000000 Au
   Au4332     1.0     0.293103      0.541380      0.596551     Biso  1.000000 Au
   Au4333     1.0     0.320690      0.513793      0.596551     Biso  1.000000 Au
   Au4334     1.0     0.320690      0.541380      0.568965     Biso  1.000000 Au
   Au4335     1.0     0.348275      0.513793      0.568965     Biso  1.000000 Au
   Au4336     1.0     0.348275      0.541380      0.596551     Biso  1.000000 Au
   Au4337     1.0     0.375862      0.513793      0.596551     Biso  1.000000 Au
   Au4338     1.0     0.375862      0.541380      0.568965     Biso  1.000000 Au
   Au4339     1.0     0.403448      0.513793      0.568965     Biso  1.000000 Au
   Au4340     1.0     0.403448      0.541380      0.596551     Biso  1.000000 Au
   Au4341     1.0     0.431035      0.513793      0.596551     Biso  1.000000 Au
   Au4342     1.0     0.431035      0.541380      0.568965     Biso  1.000000 Au
   Au4343     1.0     0.458620      0.513793      0.568965     Biso  1.000000 Au
   Au4344     1.0     0.458620      0.541380      0.596551     Biso  1.000000 Au
   Au4345     1.0     0.486207      0.513793      0.596551     Biso  1.000000 Au
   Au4346     1.0     0.486207      0.541380      0.568965     Biso  1.000000 Au
   Au4347     1.0     0.513793      0.513793      0.568965     Biso  1.000000 Au
   Au4348     1.0     0.513793      0.541380      0.596551     Biso  1.000000 Au
   Au4349     1.0     0.541380      0.513793      0.596551     Biso  1.000000 Au
   Au4350     1.0     0.541380      0.541380      0.568965     Biso  1.000000 Au
   Au4351     1.0     0.568965      0.513793      0.568965     Biso  1.000000 Au
   Au4352     1.0     0.568965      0.541380      0.596551     Biso  1.000000 Au
   Au4353     1.0     0.596551      0.513793      0.596551     Biso  1.000000 Au
   Au4354     1.0     0.596551      0.541380      0.568965     Biso  1.000000 Au
   Au4355     1.0     0.624138      0.513793      0.568965     Biso  1.000000 Au
   Au4356     1.0     0.624138      0.541380      0.596551     Biso  1.000000 Au
   Au4357     1.0     0.651725      0.513793      0.596551     Biso  1.000000 Au
   Au4358     1.0     0.651725      0.541380      0.568965     Biso  1.000000 Au
   Au4359     1.0     0.679310      0.513793      0.568965     Biso  1.000000 Au
   Au4360     1.0     0.679310      0.541380      0.596551     Biso  1.000000 Au
   Au4361     1.0     0.706897      0.513793      0.596551     Biso  1.000000 Au
   Au4362     1.0     0.706897      0.541380      0.568965     Biso  1.000000 Au
   Au4363     1.0     0.734483      0.513793      0.568965     Biso  1.000000 Au
   Au4364     1.0     0.734483      0.541380      0.596551     Biso  1.000000 Au
   Au4365     1.0     0.762070      0.513793      0.596551     Biso  1.000000 Au
   Au4366     1.0     0.762070      0.541380      0.568965     Biso  1.000000 Au
   Au4367     1.0     0.789655      0.513793      0.568965     Biso  1.000000 Au
   Au4368     1.0     0.789655      0.541380      0.596551     Biso  1.000000 Au
   Au4369     1.0     0.817242      0.513793      0.596551     Biso  1.000000 Au
   Au4370     1.0     0.817242      0.541380      0.568965     Biso  1.000000 Au
   Au4371     1.0     0.844828      0.513793      0.568965     Biso  1.000000 Au
   Au4372     1.0     0.844828      0.541380      0.596551     Biso  1.000000 Au
   Au4373     1.0     0.872413      0.513793      0.596551     Biso  1.000000 Au
   Au4374     1.0     0.872413      0.541380      0.568965     Biso  1.000000 Au
   Au4375     1.0     0.127586      0.568965      0.568965     Biso  1.000000 Au
   Au4376     1.0     0.127586      0.596551      0.596551     Biso  1.000000 Au
   Au4377     1.0     0.155171      0.568965      0.596551     Biso  1.000000 Au
   Au4378     1.0     0.155171      0.596551      0.568965     Biso  1.000000 Au
   Au4379     1.0     0.182758      0.568965      0.568965     Biso  1.000000 Au
   Au4380     1.0     0.182758      0.596551      0.596551     Biso  1.000000 Au
   Au4381     1.0     0.210345      0.568965      0.596551     Biso  1.000000 Au
   Au4382     1.0     0.210345      0.596551      0.568965     Biso  1.000000 Au
   Au4383     1.0     0.237930      0.568965      0.568965     Biso  1.000000 Au
   Au4384     1.0     0.237930      0.596551      0.596551     Biso  1.000000 Au
   Au4385     1.0     0.265517      0.568965      0.596551     Biso  1.000000 Au
   Au4386     1.0     0.265517      0.596551      0.568965     Biso  1.000000 Au
   Au4387     1.0     0.293103      0.568965      0.568965     Biso  1.000000 Au
   Au4388     1.0     0.293103      0.596551      0.596551     Biso  1.000000 Au
   Au4389     1.0     0.320690      0.568965      0.596551     Biso  1.000000 Au
   Au4390     1.0     0.320690      0.596551      0.568965     Biso  1.000000 Au
   Au4391     1.0     0.348275      0.568965      0.568965     Biso  1.000000 Au
   Au4392     1.0     0.348275      0.596551      0.596551     Biso  1.000000 Au
   Au4393     1.0     0.375862      0.568965      0.596551     Biso  1.000000 Au
   Au4394     1.0     0.375862      0.596551      0.568965     Biso  1.000000 Au
   Au4395     1.0     0.403448      0.568965      0.568965     Biso  1.000000 Au
   Au4396     1.0     0.403448      0.596551      0.596551     Biso  1.000000 Au
   Au4397     1.0     0.431035      0.568965      0.596551     Biso  1.000000 Au
   Au4398     1.0     0.431035      0.596551      0.568965     Biso  1.000000 Au
   Au4399     1.0     0.458620      0.568965      0.568965     Biso  1.000000 Au
   Au4400     1.0     0.458620      0.596551      0.596551     Biso  1.000000 Au
   Au4401     1.0     0.486207      0.568965      0.596551     Biso  1.000000 Au
   Au4402     1.0     0.486207      0.596551      0.568965     Biso  1.000000 Au
   Au4403     1.0     0.513793      0.568965      0.568965     Biso  1.000000 Au
   Au4404     1.0     0.513793      0.596551      0.596551     Biso  1.000000 Au
   Au4405     1.0     0.541380      0.568965      0.596551     Biso  1.000000 Au
   Au4406     1.0     0.541380      0.596551      0.568965     Biso  1.000000 Au
   Au4407     1.0     0.568965      0.568965      0.568965     Biso  1.000000 Au
   Au4408     1.0     0.568965      0.596551      0.596551     Biso  1.000000 Au
   Au4409     1.0     0.596551      0.568965      0.596551     Biso  1.000000 Au
   Au4410     1.0     0.596551      0.596551      0.568965     Biso  1.000000 Au
   Au4411     1.0     0.624138      0.568965      0.568965     Biso  1.000000 Au
   Au4412     1.0     0.624138      0.596551      0.596551     Biso  1.000000 Au
   Au4413     1.0     0.651725      0.568965      0.596551     Biso  1.000000 Au
   Au4414     1.0     0.651725      0.596551      0.568965     Biso  1.000000 Au
   Au4415     1.0     0.679310      0.568965      0.568965     Biso  1.000000 Au
   Au4416     1.0     0.679310      0.596551      0.596551     Biso  1.000000 Au
   Au4417     1.0     0.706897      0.568965      0.596551     Biso  1.000000 Au
   Au4418     1.0     0.706897      0.596551      0.568965     Biso  1.000000 Au
   Au4419     1.0     0.734483      0.568965      0.568965     Biso  1.000000 Au
   Au4420     1.0     0.734483      0.596551      0.596551     Biso  1.000000 Au
   Au4421     1.0     0.762070      0.568965      0.596551     Biso  1.000000 Au
   Au4422     1.0     0.762070      0.596551      0.568965     Biso  1.000000 Au
   Au4423     1.0     0.789655      0.568965      0.568965     Biso  1.000000 Au
   Au4424     1.0     0.789655      0.596551      0.596551     Biso  1.000000 Au
   Au4425     1.0     0.817242      0.568965      0.596551     Biso  1.000000 Au
   Au4426     1.0     0.817242      0.596551      0.568965     Biso  1.000000 Au
   Au4427     1.0     0.844828      0.568965      0.568965     Biso  1.000000 Au
   Au4428     1.0     0.844828      0.596551      0.596551     Biso  1.000000 Au
   Au4429     1.0     0.872413      0.568965      0.596551     Biso  1.000000 Au
   Au4430     1.0     0.872413      0.596551      0.568965     Biso  1.000000 Au
   Au4431     1.0     0.127586      0.624138      0.568965     Biso  1.000000 Au
   Au4432     1.0     0.155171      0.624138      0.596551     Biso  1.000000 Au
   Au4433     1.0     0.155171      0.651725      0.568965     Biso  1.000000 Au
   Au4434     1.0     0.182758      0.624138      0.568965     Biso  1.000000 Au
   Au4435     1.0     0.182758      0.651725      0.596551     Biso  1.000000 Au
   Au4436     1.0     0.210345      0.624138      0.596551     Biso  1.000000 Au
   Au4437     1.0     0.210345      0.651725      0.568965     Biso  1.000000 Au
   Au4438     1.0     0.237930      0.624138      0.568965     Biso  1.000000 Au
   Au4439     1.0     0.237930      0.651725      0.596551     Biso  1.000000 Au
   Au4440     1.0     0.265517      0.624138      0.596551     Biso  1.000000 Au
   Au4441     1.0     0.265517      0.651725      0.568965     Biso  1.000000 Au
   Au4442     1.0     0.293103      0.624138      0.568965     Biso  1.000000 Au
   Au4443     1.0     0.293103      0.651725      0.596551     Biso  1.000000 Au
   Au4444     1.0     0.320690      0.624138      0.596551     Biso  1.000000 Au
   Au4445     1.0     0.320690      0.651725      0.568965     Biso  1.000000 Au
   Au4446     1.0     0.348275      0.624138      0.568965     Biso  1.000000 Au
   Au4447     1.0     0.348275      0.651725      0.596551     Biso  1.000000 Au
   Au4448     1.0     0.375862      0.624138      0.596551     Biso  1.000000 Au
   Au4449     1.0     0.375862      0.651725      0.568965     Biso  1.000000 Au
   Au4450     1.0     0.403448      0.624138      0.568965     Biso  1.000000 Au
   Au4451     1.0     0.403448      0.651725      0.596551     Biso  1.000000 Au
   Au4452     1.0     0.431035      0.624138      0.596551     Biso  1.000000 Au
   Au4453     1.0     0.431035      0.651725      0.568965     Biso  1.000000 Au
   Au4454     1.0     0.458620      0.624138      0.568965     Biso  1.000000 Au
   Au4455     1.0     0.458620      0.651725      0.596551     Biso  1.000000 Au
   Au4456     1.0     0.486207      0.624138      0.596551     Biso  1.000000 Au
   Au4457     1.0     0.486207      0.651725      0.568965     Biso  1.000000 Au
   Au4458     1.0     0.513793      0.624138      0.568965     Biso  1.000000 Au
   Au4459     1.0     0.513793      0.651725      0.596551     Biso  1.000000 Au
   Au4460     1.0     0.541380      0.624138      0.596551     Biso  1.000000 Au
   Au4461     1.0     0.541380      0.651725      0.568965     Biso  1.000000 Au
   Au4462     1.0     0.568965      0.624138      0.568965     Biso  1.000000 Au
   Au4463     1.0     0.568965      0.651725      0.596551     Biso  1.000000 Au
   Au4464     1.0     0.596551      0.624138      0.596551     Biso  1.000000 Au
   Au4465     1.0     0.596551      0.651725      0.568965     Biso  1.000000 Au
   Au4466     1.0     0.624138      0.624138      0.568965     Biso  1.000000 Au
   Au4467     1.0     0.624138      0.651725      0.596551     Biso  1.000000 Au
   Au4468     1.0     0.651725      0.624138      0.596551     Biso  1.000000 Au
   Au4469     1.0     0.651725      0.651725      0.568965     Biso  1.000000 Au
   Au4470     1.0     0.679310      0.624138      0.568965     Biso  1.000000 Au
   Au4471     1.0     0.679310      0.651725      0.596551     Biso  1.000000 Au
   Au4472     1.0     0.706897      0.624138      0.596551     Biso  1.000000 Au
   Au4473     1.0     0.706897      0.651725      0.568965     Biso  1.000000 Au
   Au4474     1.0     0.734483      0.624138      0.568965     Biso  1.000000 Au
   Au4475     1.0     0.734483      0.651725      0.596551     Biso  1.000000 Au
   Au4476     1.0     0.762070      0.624138      0.596551     Biso  1.000000 Au
   Au4477     1.0     0.762070      0.651725      0.568965     Biso  1.000000 Au
   Au4478     1.0     0.789655      0.624138      0.568965     Biso  1.000000 Au
   Au4479     1.0     0.789655      0.651725      0.596551     Biso  1.000000 Au
   Au4480     1.0     0.817242      0.624138      0.596551     Biso  1.000000 Au
   Au4481     1.0     0.817242      0.651725      0.568965     Biso  1.000000 Au
   Au4482     1.0     0.844828      0.624138      0.568965     Biso  1.000000 Au
   Au4483     1.0     0.844828      0.651725      0.596551     Biso  1.000000 Au
   Au4484     1.0     0.872413      0.624138      0.596551     Biso  1.000000 Au
   Au4485     1.0     0.155171      0.679310      0.596551     Biso  1.000000 Au
   Au4486     1.0     0.182758      0.679310      0.568965     Biso  1.000000 Au
   Au4487     1.0     0.182758      0.706897      0.596551     Biso  1.000000 Au
   Au4488     1.0     0.210345      0.679310      0.596551     Biso  1.000000 Au
   Au4489     1.0     0.210345      0.706897      0.568965     Biso  1.000000 Au
   Au4490     1.0     0.237930      0.679310      0.568965     Biso  1.000000 Au
   Au4491     1.0     0.237930      0.706897      0.596551     Biso  1.000000 Au
   Au4492     1.0     0.265517      0.679310      0.596551     Biso  1.000000 Au
   Au4493     1.0     0.265517      0.706897      0.568965     Biso  1.000000 Au
   Au4494     1.0     0.293103      0.679310      0.568965     Biso  1.000000 Au
   Au4495     1.0     0.293103      0.706897      0.596551     Biso  1.000000 Au
   Au4496     1.0     0.320690      0.679310      0.596551     Biso  1.000000 Au
   Au4497     1.0     0.320690      0.706897      0.568965     Biso  1.000000 Au
   Au4498     1.0     0.348275      0.679310      0.568965     Biso  1.000000 Au
   Au4499     1.0     0.348275      0.706897      0.596551     Biso  1.000000 Au
   Au4500     1.0     0.375862      0.679310      0.596551     Biso  1.000000 Au
   Au4501     1.0     0.375862      0.706897      0.568965     Biso  1.000000 Au
   Au4502     1.0     0.403448      0.679310      0.568965     Biso  1.000000 Au
   Au4503     1.0     0.403448      0.706897      0.596551     Biso  1.000000 Au
   Au4504     1.0     0.431035      0.679310      0.596551     Biso  1.000000 Au
   Au4505     1.0     0.431035      0.706897      0.568965     Biso  1.000000 Au
   Au4506     1.0     0.458620      0.679310      0.568965     Biso  1.000000 Au
   Au4507     1.0     0.458620      0.706897      0.596551     Biso  1.000000 Au
   Au4508     1.0     0.486207      0.679310      0.596551     Biso  1.000000 Au
   Au4509     1.0     0.486207      0.706897      0.568965     Biso  1.000000 Au
   Au4510     1.0     0.513793      0.679310      0.568965     Biso  1.000000 Au
   Au4511     1.0     0.513793      0.706897      0.596551     Biso  1.000000 Au
   Au4512     1.0     0.541380      0.679310      0.596551     Biso  1.000000 Au
   Au4513     1.0     0.541380      0.706897      0.568965     Biso  1.000000 Au
   Au4514     1.0     0.568965      0.679310      0.568965     Biso  1.000000 Au
   Au4515     1.0     0.568965      0.706897      0.596551     Biso  1.000000 Au
   Au4516     1.0     0.596551      0.679310      0.596551     Biso  1.000000 Au
   Au4517     1.0     0.596551      0.706897      0.568965     Biso  1.000000 Au
   Au4518     1.0     0.624138      0.679310      0.568965     Biso  1.000000 Au
   Au4519     1.0     0.624138      0.706897      0.596551     Biso  1.000000 Au
   Au4520     1.0     0.651725      0.679310      0.596551     Biso  1.000000 Au
   Au4521     1.0     0.651725      0.706897      0.568965     Biso  1.000000 Au
   Au4522     1.0     0.679310      0.679310      0.568965     Biso  1.000000 Au
   Au4523     1.0     0.679310      0.706897      0.596551     Biso  1.000000 Au
   Au4524     1.0     0.706897      0.679310      0.596551     Biso  1.000000 Au
   Au4525     1.0     0.706897      0.706897      0.568965     Biso  1.000000 Au
   Au4526     1.0     0.734483      0.679310      0.568965     Biso  1.000000 Au
   Au4527     1.0     0.734483      0.706897      0.596551     Biso  1.000000 Au
   Au4528     1.0     0.762070      0.679310      0.596551     Biso  1.000000 Au
   Au4529     1.0     0.762070      0.706897      0.568965     Biso  1.000000 Au
   Au4530     1.0     0.789655      0.679310      0.568965     Biso  1.000000 Au
   Au4531     1.0     0.789655      0.706897      0.596551     Biso  1.000000 Au
   Au4532     1.0     0.817242      0.679310      0.596551     Biso  1.000000 Au
   Au4533     1.0     0.817242      0.706897      0.568965     Biso  1.000000 Au
   Au4534     1.0     0.844828      0.679310      0.568965     Biso  1.000000 Au
   Au4535     1.0     0.182758      0.734483      0.568965     Biso  1.000000 Au
   Au4536     1.0     0.210345      0.734483      0.596551     Biso  1.000000 Au
   Au4537     1.0     0.210345      0.762070      0.568965     Biso  1.000000 Au
   Au4538     1.0     0.237930      0.734483      0.568965     Biso  1.000000 Au
   Au4539     1.0     0.237930      0.762070      0.596551     Biso  1.000000 Au
   Au4540     1.0     0.265517      0.734483      0.596551     Biso  1.000000 Au
   Au4541     1.0     0.265517      0.762070      0.568965     Biso  1.000000 Au
   Au4542     1.0     0.293103      0.734483      0.568965     Biso  1.000000 Au
   Au4543     1.0     0.293103      0.762070      0.596551     Biso  1.000000 Au
   Au4544     1.0     0.320690      0.734483      0.596551     Biso  1.000000 Au
   Au4545     1.0     0.320690      0.762070      0.568965     Biso  1.000000 Au
   Au4546     1.0     0.348275      0.734483      0.568965     Biso  1.000000 Au
   Au4547     1.0     0.348275      0.762070      0.596551     Biso  1.000000 Au
   Au4548     1.0     0.375862      0.734483      0.596551     Biso  1.000000 Au
   Au4549     1.0     0.375862      0.762070      0.568965     Biso  1.000000 Au
   Au4550     1.0     0.403448      0.734483      0.568965     Biso  1.000000 Au
   Au4551     1.0     0.403448      0.762070      0.596551     Biso  1.000000 Au
   Au4552     1.0     0.431035      0.734483      0.596551     Biso  1.000000 Au
   Au4553     1.0     0.431035      0.762070      0.568965     Biso  1.000000 Au
   Au4554     1.0     0.458620      0.734483      0.568965     Biso  1.000000 Au
   Au4555     1.0     0.458620      0.762070      0.596551     Biso  1.000000 Au
   Au4556     1.0     0.486207      0.734483      0.596551     Biso  1.000000 Au
   Au4557     1.0     0.486207      0.762070      0.568965     Biso  1.000000 Au
   Au4558     1.0     0.513793      0.734483      0.568965     Biso  1.000000 Au
   Au4559     1.0     0.513793      0.762070      0.596551     Biso  1.000000 Au
   Au4560     1.0     0.541380      0.734483      0.596551     Biso  1.000000 Au
   Au4561     1.0     0.541380      0.762070      0.568965     Biso  1.000000 Au
   Au4562     1.0     0.568965      0.734483      0.568965     Biso  1.000000 Au
   Au4563     1.0     0.568965      0.762070      0.596551     Biso  1.000000 Au
   Au4564     1.0     0.596551      0.734483      0.596551     Biso  1.000000 Au
   Au4565     1.0     0.596551      0.762070      0.568965     Biso  1.000000 Au
   Au4566     1.0     0.624138      0.734483      0.568965     Biso  1.000000 Au
   Au4567     1.0     0.624138      0.762070      0.596551     Biso  1.000000 Au
   Au4568     1.0     0.651725      0.734483      0.596551     Biso  1.000000 Au
   Au4569     1.0     0.651725      0.762070      0.568965     Biso  1.000000 Au
   Au4570     1.0     0.679310      0.734483      0.568965     Biso  1.000000 Au
   Au4571     1.0     0.679310      0.762070      0.596551     Biso  1.000000 Au
   Au4572     1.0     0.706897      0.734483      0.596551     Biso  1.000000 Au
   Au4573     1.0     0.706897      0.762070      0.568965     Biso  1.000000 Au
   Au4574     1.0     0.734483      0.734483      0.568965     Biso  1.000000 Au
   Au4575     1.0     0.734483      0.762070      0.596551     Biso  1.000000 Au
   Au4576     1.0     0.762070      0.734483      0.596551     Biso  1.000000 Au
   Au4577     1.0     0.762070      0.762070      0.568965     Biso  1.000000 Au
   Au4578     1.0     0.789655      0.734483      0.568965     Biso  1.000000 Au
   Au4579     1.0     0.789655      0.762070      0.596551     Biso  1.000000 Au
   Au4580     1.0     0.237930      0.789655      0.568965     Biso  1.000000 Au
   Au4581     1.0     0.265517      0.789655      0.596551     Biso  1.000000 Au
   Au4582     1.0     0.265517      0.817242      0.568965     Biso  1.000000 Au
   Au4583     1.0     0.293103      0.789655      0.568965     Biso  1.000000 Au
   Au4584     1.0     0.293103      0.817242      0.596551     Biso  1.000000 Au
   Au4585     1.0     0.320690      0.789655      0.596551     Biso  1.000000 Au
   Au4586     1.0     0.320690      0.817242      0.568965     Biso  1.000000 Au
   Au4587     1.0     0.348275      0.789655      0.568965     Biso  1.000000 Au
   Au4588     1.0     0.348275      0.817242      0.596551     Biso  1.000000 Au
   Au4589     1.0     0.375862      0.789655      0.596551     Biso  1.000000 Au
   Au4590     1.0     0.375862      0.817242      0.568965     Biso  1.000000 Au
   Au4591     1.0     0.403448      0.789655      0.568965     Biso  1.000000 Au
   Au4592     1.0     0.403448      0.817242      0.596551     Biso  1.000000 Au
   Au4593     1.0     0.431035      0.789655      0.596551     Biso  1.000000 Au
   Au4594     1.0     0.431035      0.817242      0.568965     Biso  1.000000 Au
   Au4595     1.0     0.458620      0.789655      0.568965     Biso  1.000000 Au
   Au4596     1.0     0.458620      0.817242      0.596551     Biso  1.000000 Au
   Au4597     1.0     0.486207      0.789655      0.596551     Biso  1.000000 Au
   Au4598     1.0     0.486207      0.817242      0.568965     Biso  1.000000 Au
   Au4599     1.0     0.513793      0.789655      0.568965     Biso  1.000000 Au
   Au4600     1.0     0.513793      0.817242      0.596551     Biso  1.000000 Au
   Au4601     1.0     0.541380      0.789655      0.596551     Biso  1.000000 Au
   Au4602     1.0     0.541380      0.817242      0.568965     Biso  1.000000 Au
   Au4603     1.0     0.568965      0.789655      0.568965     Biso  1.000000 Au
   Au4604     1.0     0.568965      0.817242      0.596551     Biso  1.000000 Au
   Au4605     1.0     0.596551      0.789655      0.596551     Biso  1.000000 Au
   Au4606     1.0     0.596551      0.817242      0.568965     Biso  1.000000 Au
   Au4607     1.0     0.624138      0.789655      0.568965     Biso  1.000000 Au
   Au4608     1.0     0.624138      0.817242      0.596551     Biso  1.000000 Au
   Au4609     1.0     0.651725      0.789655      0.596551     Biso  1.000000 Au
   Au4610     1.0     0.651725      0.817242      0.568965     Biso  1.000000 Au
   Au4611     1.0     0.679310      0.789655      0.568965     Biso  1.000000 Au
   Au4612     1.0     0.679310      0.817242      0.596551     Biso  1.000000 Au
   Au4613     1.0     0.706897      0.789655      0.596551     Biso  1.000000 Au
   Au4614     1.0     0.706897      0.817242      0.568965     Biso  1.000000 Au
   Au4615     1.0     0.734483      0.789655      0.568965     Biso  1.000000 Au
   Au4616     1.0     0.762070      0.789655      0.596551     Biso  1.000000 Au
   Au4617     1.0     0.320690      0.844828      0.596551     Biso  1.000000 Au
   Au4618     1.0     0.348275      0.844828      0.568965     Biso  1.000000 Au
   Au4619     1.0     0.375862      0.844828      0.596551     Biso  1.000000 Au
   Au4620     1.0     0.375862      0.872413      0.568965     Biso  1.000000 Au
   Au4621     1.0     0.403448      0.844828      0.568965     Biso  1.000000 Au
   Au4622     1.0     0.403448      0.872413      0.596551     Biso  1.000000 Au
   Au4623     1.0     0.431035      0.844828      0.596551     Biso  1.000000 Au
   Au4624     1.0     0.431035      0.872413      0.568965     Biso  1.000000 Au
   Au4625     1.0     0.458620      0.844828      0.568965     Biso  1.000000 Au
   Au4626     1.0     0.458620      0.872413      0.596551     Biso  1.000000 Au
   Au4627     1.0     0.486207      0.844828      0.596551     Biso  1.000000 Au
   Au4628     1.0     0.486207      0.872413      0.568965     Biso  1.000000 Au
   Au4629     1.0     0.513793      0.844828      0.568965     Biso  1.000000 Au
   Au4630     1.0     0.513793      0.872413      0.596551     Biso  1.000000 Au
   Au4631     1.0     0.541380      0.844828      0.596551     Biso  1.000000 Au
   Au4632     1.0     0.541380      0.872413      0.568965     Biso  1.000000 Au
   Au4633     1.0     0.568965      0.844828      0.568965     Biso  1.000000 Au
   Au4634     1.0     0.568965      0.872413      0.596551     Biso  1.000000 Au
   Au4635     1.0     0.596551      0.844828      0.596551     Biso  1.000000 Au
   Au4636     1.0     0.596551      0.872413      0.568965     Biso  1.000000 Au
   Au4637     1.0     0.624138      0.844828      0.568965     Biso  1.000000 Au
   Au4638     1.0     0.624138      0.872413      0.596551     Biso  1.000000 Au
   Au4639     1.0     0.651725      0.844828      0.596551     Biso  1.000000 Au
   Au4640     1.0     0.679310      0.844828      0.568965     Biso  1.000000 Au
   Au4641     1.0     0.375862      0.155171      0.624138     Biso  1.000000 Au
   Au4642     1.0     0.403448      0.127586      0.624138     Biso  1.000000 Au
   Au4643     1.0     0.403448      0.155171      0.651725     Biso  1.000000 Au
   Au4644     1.0     0.431035      0.155171      0.624138     Biso  1.000000 Au
   Au4645     1.0     0.458620      0.127586      0.624138     Biso  1.000000 Au
   Au4646     1.0     0.458620      0.155171      0.651725     Biso  1.000000 Au
   Au4647     1.0     0.486207      0.127586      0.651725     Biso  1.000000 Au
   Au4648     1.0     0.486207      0.155171      0.624138     Biso  1.000000 Au
   Au4649     1.0     0.513793      0.127586      0.624138     Biso  1.000000 Au
   Au4650     1.0     0.513793      0.155171      0.651725     Biso  1.000000 Au
   Au4651     1.0     0.541380      0.127586      0.651725     Biso  1.000000 Au
   Au4652     1.0     0.541380      0.155171      0.624138     Biso  1.000000 Au
   Au4653     1.0     0.568965      0.127586      0.624138     Biso  1.000000 Au
   Au4654     1.0     0.568965      0.155171      0.651725     Biso  1.000000 Au
   Au4655     1.0     0.596551      0.155171      0.624138     Biso  1.000000 Au
   Au4656     1.0     0.624138      0.155171      0.651725     Biso  1.000000 Au
   Au4657     1.0     0.651725      0.155171      0.624138     Biso  1.000000 Au
   Au4658     1.0     0.265517      0.210345      0.624138     Biso  1.000000 Au
   Au4659     1.0     0.293103      0.182758      0.624138     Biso  1.000000 Au
   Au4660     1.0     0.293103      0.210345      0.651725     Biso  1.000000 Au
   Au4661     1.0     0.320690      0.182758      0.651725     Biso  1.000000 Au
   Au4662     1.0     0.320690      0.210345      0.624138     Biso  1.000000 Au
   Au4663     1.0     0.348275      0.182758      0.624138     Biso  1.000000 Au
   Au4664     1.0     0.348275      0.210345      0.651725     Biso  1.000000 Au
   Au4665     1.0     0.375862      0.182758      0.651725     Biso  1.000000 Au
   Au4666     1.0     0.375862      0.210345      0.624138     Biso  1.000000 Au
   Au4667     1.0     0.403448      0.182758      0.624138     Biso  1.000000 Au
   Au4668     1.0     0.403448      0.210345      0.651725     Biso  1.000000 Au
   Au4669     1.0     0.431035      0.182758      0.651725     Biso  1.000000 Au
   Au4670     1.0     0.431035      0.210345      0.624138     Biso  1.000000 Au
   Au4671     1.0     0.458620      0.182758      0.624138     Biso  1.000000 Au
   Au4672     1.0     0.458620      0.210345      0.651725     Biso  1.000000 Au
   Au4673     1.0     0.486207      0.182758      0.651725     Biso  1.000000 Au
   Au4674     1.0     0.486207      0.210345      0.624138     Biso  1.000000 Au
   Au4675     1.0     0.513793      0.182758      0.624138     Biso  1.000000 Au
   Au4676     1.0     0.513793      0.210345      0.651725     Biso  1.000000 Au
   Au4677     1.0     0.541380      0.182758      0.651725     Biso  1.000000 Au
   Au4678     1.0     0.541380      0.210345      0.624138     Biso  1.000000 Au
   Au4679     1.0     0.568965      0.182758      0.624138     Biso  1.000000 Au
   Au4680     1.0     0.568965      0.210345      0.651725     Biso  1.000000 Au
   Au4681     1.0     0.596551      0.182758      0.651725     Biso  1.000000 Au
   Au4682     1.0     0.596551      0.210345      0.624138     Biso  1.000000 Au
   Au4683     1.0     0.624138      0.182758      0.624138     Biso  1.000000 Au
   Au4684     1.0     0.624138      0.210345      0.651725     Biso  1.000000 Au
   Au4685     1.0     0.651725      0.182758      0.651725     Biso  1.000000 Au
   Au4686     1.0     0.651725      0.210345      0.624138     Biso  1.000000 Au
   Au4687     1.0     0.679310      0.182758      0.624138     Biso  1.000000 Au
   Au4688     1.0     0.679310      0.210345      0.651725     Biso  1.000000 Au
   Au4689     1.0     0.706897      0.210345      0.624138     Biso  1.000000 Au
   Au4690     1.0     0.734483      0.210345      0.651725     Biso  1.000000 Au
   Au4691     1.0     0.210345      0.265517      0.624138     Biso  1.000000 Au
   Au4692     1.0     0.237930      0.237930      0.624138     Biso  1.000000 Au
   Au4693     1.0     0.237930      0.265517      0.651725     Biso  1.000000 Au
   Au4694     1.0     0.265517      0.237930      0.651725     Biso  1.000000 Au
   Au4695     1.0     0.265517      0.265517      0.624138     Biso  1.000000 Au
   Au4696     1.0     0.293103      0.237930      0.624138     Biso  1.000000 Au
   Au4697     1.0     0.293103      0.265517      0.651725     Biso  1.000000 Au
   Au4698     1.0     0.320690      0.237930      0.651725     Biso  1.000000 Au
   Au4699     1.0     0.320690      0.265517      0.624138     Biso  1.000000 Au
   Au4700     1.0     0.348275      0.237930      0.624138     Biso  1.000000 Au
   Au4701     1.0     0.348275      0.265517      0.651725     Biso  1.000000 Au
   Au4702     1.0     0.375862      0.237930      0.651725     Biso  1.000000 Au
   Au4703     1.0     0.375862      0.265517      0.624138     Biso  1.000000 Au
   Au4704     1.0     0.403448      0.237930      0.624138     Biso  1.000000 Au
   Au4705     1.0     0.403448      0.265517      0.651725     Biso  1.000000 Au
   Au4706     1.0     0.431035      0.237930      0.651725     Biso  1.000000 Au
   Au4707     1.0     0.431035      0.265517      0.624138     Biso  1.000000 Au
   Au4708     1.0     0.458620      0.237930      0.624138     Biso  1.000000 Au
   Au4709     1.0     0.458620      0.265517      0.651725     Biso  1.000000 Au
   Au4710     1.0     0.486207      0.237930      0.651725     Biso  1.000000 Au
   Au4711     1.0     0.486207      0.265517      0.624138     Biso  1.000000 Au
   Au4712     1.0     0.513793      0.237930      0.624138     Biso  1.000000 Au
   Au4713     1.0     0.513793      0.265517      0.651725     Biso  1.000000 Au
   Au4714     1.0     0.541380      0.237930      0.651725     Biso  1.000000 Au
   Au4715     1.0     0.541380      0.265517      0.624138     Biso  1.000000 Au
   Au4716     1.0     0.568965      0.237930      0.624138     Biso  1.000000 Au
   Au4717     1.0     0.568965      0.265517      0.651725     Biso  1.000000 Au
   Au4718     1.0     0.596551      0.237930      0.651725     Biso  1.000000 Au
   Au4719     1.0     0.596551      0.265517      0.624138     Biso  1.000000 Au
   Au4720     1.0     0.624138      0.237930      0.624138     Biso  1.000000 Au
   Au4721     1.0     0.624138      0.265517      0.651725     Biso  1.000000 Au
   Au4722     1.0     0.651725      0.237930      0.651725     Biso  1.000000 Au
   Au4723     1.0     0.651725      0.265517      0.624138     Biso  1.000000 Au
   Au4724     1.0     0.679310      0.237930      0.624138     Biso  1.000000 Au
   Au4725     1.0     0.679310      0.265517      0.651725     Biso  1.000000 Au
   Au4726     1.0     0.706897      0.237930      0.651725     Biso  1.000000 Au
   Au4727     1.0     0.706897      0.265517      0.624138     Biso  1.000000 Au
   Au4728     1.0     0.734483      0.237930      0.624138     Biso  1.000000 Au
   Au4729     1.0     0.734483      0.265517      0.651725     Biso  1.000000 Au
   Au4730     1.0     0.762070      0.237930      0.651725     Biso  1.000000 Au
   Au4731     1.0     0.762070      0.265517      0.624138     Biso  1.000000 Au
   Au4732     1.0     0.789655      0.265517      0.651725     Biso  1.000000 Au
   Au4733     1.0     0.182758      0.293103      0.624138     Biso  1.000000 Au
   Au4734     1.0     0.182758      0.320690      0.651725     Biso  1.000000 Au
   Au4735     1.0     0.210345      0.293103      0.651725     Biso  1.000000 Au
   Au4736     1.0     0.210345      0.320690      0.624138     Biso  1.000000 Au
   Au4737     1.0     0.237930      0.293103      0.624138     Biso  1.000000 Au
   Au4738     1.0     0.237930      0.320690      0.651725     Biso  1.000000 Au
   Au4739     1.0     0.265517      0.293103      0.651725     Biso  1.000000 Au
   Au4740     1.0     0.265517      0.320690      0.624138     Biso  1.000000 Au
   Au4741     1.0     0.293103      0.293103      0.624138     Biso  1.000000 Au
   Au4742     1.0     0.293103      0.320690      0.651725     Biso  1.000000 Au
   Au4743     1.0     0.320690      0.293103      0.651725     Biso  1.000000 Au
   Au4744     1.0     0.320690      0.320690      0.624138     Biso  1.000000 Au
   Au4745     1.0     0.348275      0.293103      0.624138     Biso  1.000000 Au
   Au4746     1.0     0.348275      0.320690      0.651725     Biso  1.000000 Au
   Au4747     1.0     0.375862      0.293103      0.651725     Biso  1.000000 Au
   Au4748     1.0     0.375862      0.320690      0.624138     Biso  1.000000 Au
   Au4749     1.0     0.403448      0.293103      0.624138     Biso  1.000000 Au
   Au4750     1.0     0.403448      0.320690      0.651725     Biso  1.000000 Au
   Au4751     1.0     0.431035      0.293103      0.651725     Biso  1.000000 Au
   Au4752     1.0     0.431035      0.320690      0.624138     Biso  1.000000 Au
   Au4753     1.0     0.458620      0.293103      0.624138     Biso  1.000000 Au
   Au4754     1.0     0.458620      0.320690      0.651725     Biso  1.000000 Au
   Au4755     1.0     0.486207      0.293103      0.651725     Biso  1.000000 Au
   Au4756     1.0     0.486207      0.320690      0.624138     Biso  1.000000 Au
   Au4757     1.0     0.513793      0.293103      0.624138     Biso  1.000000 Au
   Au4758     1.0     0.513793      0.320690      0.651725     Biso  1.000000 Au
   Au4759     1.0     0.541380      0.293103      0.651725     Biso  1.000000 Au
   Au4760     1.0     0.541380      0.320690      0.624138     Biso  1.000000 Au
   Au4761     1.0     0.568965      0.293103      0.624138     Biso  1.000000 Au
   Au4762     1.0     0.568965      0.320690      0.651725     Biso  1.000000 Au
   Au4763     1.0     0.596551      0.293103      0.651725     Biso  1.000000 Au
   Au4764     1.0     0.596551      0.320690      0.624138     Biso  1.000000 Au
   Au4765     1.0     0.624138      0.293103      0.624138     Biso  1.000000 Au
   Au4766     1.0     0.624138      0.320690      0.651725     Biso  1.000000 Au
   Au4767     1.0     0.651725      0.293103      0.651725     Biso  1.000000 Au
   Au4768     1.0     0.651725      0.320690      0.624138     Biso  1.000000 Au
   Au4769     1.0     0.679310      0.293103      0.624138     Biso  1.000000 Au
   Au4770     1.0     0.679310      0.320690      0.651725     Biso  1.000000 Au
   Au4771     1.0     0.706897      0.293103      0.651725     Biso  1.000000 Au
   Au4772     1.0     0.706897      0.320690      0.624138     Biso  1.000000 Au
   Au4773     1.0     0.734483      0.293103      0.624138     Biso  1.000000 Au
   Au4774     1.0     0.734483      0.320690      0.651725     Biso  1.000000 Au
   Au4775     1.0     0.762070      0.293103      0.651725     Biso  1.000000 Au
   Au4776     1.0     0.762070      0.320690      0.624138     Biso  1.000000 Au
   Au4777     1.0     0.789655      0.293103      0.624138     Biso  1.000000 Au
   Au4778     1.0     0.789655      0.320690      0.651725     Biso  1.000000 Au
   Au4779     1.0     0.817242      0.320690      0.624138     Biso  1.000000 Au
   Au4780     1.0     0.155171      0.375862      0.624138     Biso  1.000000 Au
   Au4781     1.0     0.182758      0.348275      0.624138     Biso  1.000000 Au
   Au4782     1.0     0.182758      0.375862      0.651725     Biso  1.000000 Au
   Au4783     1.0     0.210345      0.348275      0.651725     Biso  1.000000 Au
   Au4784     1.0     0.210345      0.375862      0.624138     Biso  1.000000 Au
   Au4785     1.0     0.237930      0.348275      0.624138     Biso  1.000000 Au
   Au4786     1.0     0.237930      0.375862      0.651725     Biso  1.000000 Au
   Au4787     1.0     0.265517      0.348275      0.651725     Biso  1.000000 Au
   Au4788     1.0     0.265517      0.375862      0.624138     Biso  1.000000 Au
   Au4789     1.0     0.293103      0.348275      0.624138     Biso  1.000000 Au
   Au4790     1.0     0.293103      0.375862      0.651725     Biso  1.000000 Au
   Au4791     1.0     0.320690      0.348275      0.651725     Biso  1.000000 Au
   Au4792     1.0     0.320690      0.375862      0.624138     Biso  1.000000 Au
   Au4793     1.0     0.348275      0.348275      0.624138     Biso  1.000000 Au
   Au4794     1.0     0.348275      0.375862      0.651725     Biso  1.000000 Au
   Au4795     1.0     0.375862      0.348275      0.651725     Biso  1.000000 Au
   Au4796     1.0     0.375862      0.375862      0.624138     Biso  1.000000 Au
   Au4797     1.0     0.403448      0.348275      0.624138     Biso  1.000000 Au
   Au4798     1.0     0.403448      0.375862      0.651725     Biso  1.000000 Au
   Au4799     1.0     0.431035      0.348275      0.651725     Biso  1.000000 Au
   Au4800     1.0     0.431035      0.375862      0.624138     Biso  1.000000 Au
   Au4801     1.0     0.458620      0.348275      0.624138     Biso  1.000000 Au
   Au4802     1.0     0.458620      0.375862      0.651725     Biso  1.000000 Au
   Au4803     1.0     0.486207      0.348275      0.651725     Biso  1.000000 Au
   Au4804     1.0     0.486207      0.375862      0.624138     Biso  1.000000 Au
   Au4805     1.0     0.513793      0.348275      0.624138     Biso  1.000000 Au
   Au4806     1.0     0.513793      0.375862      0.651725     Biso  1.000000 Au
   Au4807     1.0     0.541380      0.348275      0.651725     Biso  1.000000 Au
   Au4808     1.0     0.541380      0.375862      0.624138     Biso  1.000000 Au
   Au4809     1.0     0.568965      0.348275      0.624138     Biso  1.000000 Au
   Au4810     1.0     0.568965      0.375862      0.651725     Biso  1.000000 Au
   Au4811     1.0     0.596551      0.348275      0.651725     Biso  1.000000 Au
   Au4812     1.0     0.596551      0.375862      0.624138     Biso  1.000000 Au
   Au4813     1.0     0.624138      0.348275      0.624138     Biso  1.000000 Au
   Au4814     1.0     0.624138      0.375862      0.651725     Biso  1.000000 Au
   Au4815     1.0     0.651725      0.348275      0.651725     Biso  1.000000 Au
   Au4816     1.0     0.651725      0.375862      0.624138     Biso  1.000000 Au
   Au4817     1.0     0.679310      0.348275      0.624138     Biso  1.000000 Au
   Au4818     1.0     0.679310      0.375862      0.651725     Biso  1.000000 Au
   Au4819     1.0     0.706897      0.348275      0.651725     Biso  1.000000 Au
   Au4820     1.0     0.706897      0.375862      0.624138     Biso  1.000000 Au
   Au4821     1.0     0.734483      0.348275      0.624138     Biso  1.000000 Au
   Au4822     1.0     0.734483      0.375862      0.651725     Biso  1.000000 Au
   Au4823     1.0     0.762070      0.348275      0.651725     Biso  1.000000 Au
   Au4824     1.0     0.762070      0.375862      0.624138     Biso  1.000000 Au
   Au4825     1.0     0.789655      0.348275      0.624138     Biso  1.000000 Au
   Au4826     1.0     0.789655      0.375862      0.651725     Biso  1.000000 Au
   Au4827     1.0     0.817242      0.348275      0.651725     Biso  1.000000 Au
   Au4828     1.0     0.817242      0.375862      0.624138     Biso  1.000000 Au
   Au4829     1.0     0.844828      0.348275      0.624138     Biso  1.000000 Au
   Au4830     1.0     0.844828      0.375862      0.651725     Biso  1.000000 Au
   Au4831     1.0     0.127586      0.403448      0.624138     Biso  1.000000 Au
   Au4832     1.0     0.155171      0.403448      0.651725     Biso  1.000000 Au
   Au4833     1.0     0.155171      0.431035      0.624138     Biso  1.000000 Au
   Au4834     1.0     0.182758      0.403448      0.624138     Biso  1.000000 Au
   Au4835     1.0     0.182758      0.431035      0.651725     Biso  1.000000 Au
   Au4836     1.0     0.210345      0.403448      0.651725     Biso  1.000000 Au
   Au4837     1.0     0.210345      0.431035      0.624138     Biso  1.000000 Au
   Au4838     1.0     0.237930      0.403448      0.624138     Biso  1.000000 Au
   Au4839     1.0     0.237930      0.431035      0.651725     Biso  1.000000 Au
   Au4840     1.0     0.265517      0.403448      0.651725     Biso  1.000000 Au
   Au4841     1.0     0.265517      0.431035      0.624138     Biso  1.000000 Au
   Au4842     1.0     0.293103      0.403448      0.624138     Biso  1.000000 Au
   Au4843     1.0     0.293103      0.431035      0.651725     Biso  1.000000 Au
   Au4844     1.0     0.320690      0.403448      0.651725     Biso  1.000000 Au
   Au4845     1.0     0.320690      0.431035      0.624138     Biso  1.000000 Au
   Au4846     1.0     0.348275      0.403448      0.624138     Biso  1.000000 Au
   Au4847     1.0     0.348275      0.431035      0.651725     Biso  1.000000 Au
   Au4848     1.0     0.375862      0.403448      0.651725     Biso  1.000000 Au
   Au4849     1.0     0.375862      0.431035      0.624138     Biso  1.000000 Au
   Au4850     1.0     0.403448      0.403448      0.624138     Biso  1.000000 Au
   Au4851     1.0     0.403448      0.431035      0.651725     Biso  1.000000 Au
   Au4852     1.0     0.431035      0.403448      0.651725     Biso  1.000000 Au
   Au4853     1.0     0.431035      0.431035      0.624138     Biso  1.000000 Au
   Au4854     1.0     0.458620      0.403448      0.624138     Biso  1.000000 Au
   Au4855     1.0     0.458620      0.431035      0.651725     Biso  1.000000 Au
   Au4856     1.0     0.486207      0.403448      0.651725     Biso  1.000000 Au
   Au4857     1.0     0.486207      0.431035      0.624138     Biso  1.000000 Au
   Au4858     1.0     0.513793      0.403448      0.624138     Biso  1.000000 Au
   Au4859     1.0     0.513793      0.431035      0.651725     Biso  1.000000 Au
   Au4860     1.0     0.541380      0.403448      0.651725     Biso  1.000000 Au
   Au4861     1.0     0.541380      0.431035      0.624138     Biso  1.000000 Au
   Au4862     1.0     0.568965      0.403448      0.624138     Biso  1.000000 Au
   Au4863     1.0     0.568965      0.431035      0.651725     Biso  1.000000 Au
   Au4864     1.0     0.596551      0.403448      0.651725     Biso  1.000000 Au
   Au4865     1.0     0.596551      0.431035      0.624138     Biso  1.000000 Au
   Au4866     1.0     0.624138      0.403448      0.624138     Biso  1.000000 Au
   Au4867     1.0     0.624138      0.431035      0.651725     Biso  1.000000 Au
   Au4868     1.0     0.651725      0.403448      0.651725     Biso  1.000000 Au
   Au4869     1.0     0.651725      0.431035      0.624138     Biso  1.000000 Au
   Au4870     1.0     0.679310      0.403448      0.624138     Biso  1.000000 Au
   Au4871     1.0     0.679310      0.431035      0.651725     Biso  1.000000 Au
   Au4872     1.0     0.706897      0.403448      0.651725     Biso  1.000000 Au
   Au4873     1.0     0.706897      0.431035      0.624138     Biso  1.000000 Au
   Au4874     1.0     0.734483      0.403448      0.624138     Biso  1.000000 Au
   Au4875     1.0     0.734483      0.431035      0.651725     Biso  1.000000 Au
   Au4876     1.0     0.762070      0.403448      0.651725     Biso  1.000000 Au
   Au4877     1.0     0.762070      0.431035      0.624138     Biso  1.000000 Au
   Au4878     1.0     0.789655      0.403448      0.624138     Biso  1.000000 Au
   Au4879     1.0     0.789655      0.431035      0.651725     Biso  1.000000 Au
   Au4880     1.0     0.817242      0.403448      0.651725     Biso  1.000000 Au
   Au4881     1.0     0.817242      0.431035      0.624138     Biso  1.000000 Au
   Au4882     1.0     0.844828      0.403448      0.624138     Biso  1.000000 Au
   Au4883     1.0     0.844828      0.431035      0.651725     Biso  1.000000 Au
   Au4884     1.0     0.872413      0.431035      0.624138     Biso  1.000000 Au
   Au4885     1.0     0.127586      0.458620      0.624138     Biso  1.000000 Au
   Au4886     1.0     0.127586      0.486207      0.651725     Biso  1.000000 Au
   Au4887     1.0     0.155171      0.458620      0.651725     Biso  1.000000 Au
   Au4888     1.0     0.155171      0.486207      0.624138     Biso  1.000000 Au
   Au4889     1.0     0.182758      0.458620      0.624138     Biso  1.000000 Au
   Au4890     1.0     0.182758      0.486207      0.651725     Biso  1.000000 Au
   Au4891     1.0     0.210345      0.458620      0.651725     Biso  1.000000 Au
   Au4892     1.0     0.210345      0.486207      0.624138     Biso  1.000000 Au
   Au4893     1.0     0.237930      0.458620      0.624138     Biso  1.000000 Au
   Au4894     1.0     0.237930      0.486207      0.651725     Biso  1.000000 Au
   Au4895     1.0     0.265517      0.458620      0.651725     Biso  1.000000 Au
   Au4896     1.0     0.265517      0.486207      0.624138     Biso  1.000000 Au
   Au4897     1.0     0.293103      0.458620      0.624138     Biso  1.000000 Au
   Au4898     1.0     0.293103      0.486207      0.651725     Biso  1.000000 Au
   Au4899     1.0     0.320690      0.458620      0.651725     Biso  1.000000 Au
   Au4900     1.0     0.320690      0.486207      0.624138     Biso  1.000000 Au
   Au4901     1.0     0.348275      0.458620      0.624138     Biso  1.000000 Au
   Au4902     1.0     0.348275      0.486207      0.651725     Biso  1.000000 Au
   Au4903     1.0     0.375862      0.458620      0.651725     Biso  1.000000 Au
   Au4904     1.0     0.375862      0.486207      0.624138     Biso  1.000000 Au
   Au4905     1.0     0.403448      0.458620      0.624138     Biso  1.000000 Au
   Au4906     1.0     0.403448      0.486207      0.651725     Biso  1.000000 Au
   Au4907     1.0     0.431035      0.458620      0.651725     Biso  1.000000 Au
   Au4908     1.0     0.431035      0.486207      0.624138     Biso  1.000000 Au
   Au4909     1.0     0.458620      0.458620      0.624138     Biso  1.000000 Au
   Au4910     1.0     0.458620      0.486207      0.651725     Biso  1.000000 Au
   Au4911     1.0     0.486207      0.458620      0.651725     Biso  1.000000 Au
   Au4912     1.0     0.486207      0.486207      0.624138     Biso  1.000000 Au
   Au4913     1.0     0.513793      0.458620      0.624138     Biso  1.000000 Au
   Au4914     1.0     0.513793      0.486207      0.651725     Biso  1.000000 Au
   Au4915     1.0     0.541380      0.458620      0.651725     Biso  1.000000 Au
   Au4916     1.0     0.541380      0.486207      0.624138     Biso  1.000000 Au
   Au4917     1.0     0.568965      0.458620      0.624138     Biso  1.000000 Au
   Au4918     1.0     0.568965      0.486207      0.651725     Biso  1.000000 Au
   Au4919     1.0     0.596551      0.458620      0.651725     Biso  1.000000 Au
   Au4920     1.0     0.596551      0.486207      0.624138     Biso  1.000000 Au
   Au4921     1.0     0.624138      0.458620      0.624138     Biso  1.000000 Au
   Au4922     1.0     0.624138      0.486207      0.651725     Biso  1.000000 Au
   Au4923     1.0     0.651725      0.458620      0.651725     Biso  1.000000 Au
   Au4924     1.0     0.651725      0.486207      0.624138     Biso  1.000000 Au
   Au4925     1.0     0.679310      0.458620      0.624138     Biso  1.000000 Au
   Au4926     1.0     0.679310      0.486207      0.651725     Biso  1.000000 Au
   Au4927     1.0     0.706897      0.458620      0.651725     Biso  1.000000 Au
   Au4928     1.0     0.706897      0.486207      0.624138     Biso  1.000000 Au
   Au4929     1.0     0.734483      0.458620      0.624138     Biso  1.000000 Au
   Au4930     1.0     0.734483      0.486207      0.651725     Biso  1.000000 Au
   Au4931     1.0     0.762070      0.458620      0.651725     Biso  1.000000 Au
   Au4932     1.0     0.762070      0.486207      0.624138     Biso  1.000000 Au
   Au4933     1.0     0.789655      0.458620      0.624138     Biso  1.000000 Au
   Au4934     1.0     0.789655      0.486207      0.651725     Biso  1.000000 Au
   Au4935     1.0     0.817242      0.458620      0.651725     Biso  1.000000 Au
   Au4936     1.0     0.817242      0.486207      0.624138     Biso  1.000000 Au
   Au4937     1.0     0.844828      0.458620      0.624138     Biso  1.000000 Au
   Au4938     1.0     0.844828      0.486207      0.651725     Biso  1.000000 Au
   Au4939     1.0     0.872413      0.458620      0.651725     Biso  1.000000 Au
   Au4940     1.0     0.872413      0.486207      0.624138     Biso  1.000000 Au
   Au4941     1.0     0.127586      0.513793      0.624138     Biso  1.000000 Au
   Au4942     1.0     0.127586      0.541380      0.651725     Biso  1.000000 Au
   Au4943     1.0     0.155171      0.513793      0.651725     Biso  1.000000 Au
   Au4944     1.0     0.155171      0.541380      0.624138     Biso  1.000000 Au
   Au4945     1.0     0.182758      0.513793      0.624138     Biso  1.000000 Au
   Au4946     1.0     0.182758      0.541380      0.651725     Biso  1.000000 Au
   Au4947     1.0     0.210345      0.513793      0.651725     Biso  1.000000 Au
   Au4948     1.0     0.210345      0.541380      0.624138     Biso  1.000000 Au
   Au4949     1.0     0.237930      0.513793      0.624138     Biso  1.000000 Au
   Au4950     1.0     0.237930      0.541380      0.651725     Biso  1.000000 Au
   Au4951     1.0     0.265517      0.513793      0.651725     Biso  1.000000 Au
   Au4952     1.0     0.265517      0.541380      0.624138     Biso  1.000000 Au
   Au4953     1.0     0.293103      0.513793      0.624138     Biso  1.000000 Au
   Au4954     1.0     0.293103      0.541380      0.651725     Biso  1.000000 Au
   Au4955     1.0     0.320690      0.513793      0.651725     Biso  1.000000 Au
   Au4956     1.0     0.320690      0.541380      0.624138     Biso  1.000000 Au
   Au4957     1.0     0.348275      0.513793      0.624138     Biso  1.000000 Au
   Au4958     1.0     0.348275      0.541380      0.651725     Biso  1.000000 Au
   Au4959     1.0     0.375862      0.513793      0.651725     Biso  1.000000 Au
   Au4960     1.0     0.375862      0.541380      0.624138     Biso  1.000000 Au
   Au4961     1.0     0.403448      0.513793      0.624138     Biso  1.000000 Au
   Au4962     1.0     0.403448      0.541380      0.651725     Biso  1.000000 Au
   Au4963     1.0     0.431035      0.513793      0.651725     Biso  1.000000 Au
   Au4964     1.0     0.431035      0.541380      0.624138     Biso  1.000000 Au
   Au4965     1.0     0.458620      0.513793      0.624138     Biso  1.000000 Au
   Au4966     1.0     0.458620      0.541380      0.651725     Biso  1.000000 Au
   Au4967     1.0     0.486207      0.513793      0.651725     Biso  1.000000 Au
   Au4968     1.0     0.486207      0.541380      0.624138     Biso  1.000000 Au
   Au4969     1.0     0.513793      0.513793      0.624138     Biso  1.000000 Au
   Au4970     1.0     0.513793      0.541380      0.651725     Biso  1.000000 Au
   Au4971     1.0     0.541380      0.513793      0.651725     Biso  1.000000 Au
   Au4972     1.0     0.541380      0.541380      0.624138     Biso  1.000000 Au
   Au4973     1.0     0.568965      0.513793      0.624138     Biso  1.000000 Au
   Au4974     1.0     0.568965      0.541380      0.651725     Biso  1.000000 Au
   Au4975     1.0     0.596551      0.513793      0.651725     Biso  1.000000 Au
   Au4976     1.0     0.596551      0.541380      0.624138     Biso  1.000000 Au
   Au4977     1.0     0.624138      0.513793      0.624138     Biso  1.000000 Au
   Au4978     1.0     0.624138      0.541380      0.651725     Biso  1.000000 Au
   Au4979     1.0     0.651725      0.513793      0.651725     Biso  1.000000 Au
   Au4980     1.0     0.651725      0.541380      0.624138     Biso  1.000000 Au
   Au4981     1.0     0.679310      0.513793      0.624138     Biso  1.000000 Au
   Au4982     1.0     0.679310      0.541380      0.651725     Biso  1.000000 Au
   Au4983     1.0     0.706897      0.513793      0.651725     Biso  1.000000 Au
   Au4984     1.0     0.706897      0.541380      0.624138     Biso  1.000000 Au
   Au4985     1.0     0.734483      0.513793      0.624138     Biso  1.000000 Au
   Au4986     1.0     0.734483      0.541380      0.651725     Biso  1.000000 Au
   Au4987     1.0     0.762070      0.513793      0.651725     Biso  1.000000 Au
   Au4988     1.0     0.762070      0.541380      0.624138     Biso  1.000000 Au
   Au4989     1.0     0.789655      0.513793      0.624138     Biso  1.000000 Au
   Au4990     1.0     0.789655      0.541380      0.651725     Biso  1.000000 Au
   Au4991     1.0     0.817242      0.513793      0.651725     Biso  1.000000 Au
   Au4992     1.0     0.817242      0.541380      0.624138     Biso  1.000000 Au
   Au4993     1.0     0.844828      0.513793      0.624138     Biso  1.000000 Au
   Au4994     1.0     0.844828      0.541380      0.651725     Biso  1.000000 Au
   Au4995     1.0     0.872413      0.513793      0.651725     Biso  1.000000 Au
   Au4996     1.0     0.872413      0.541380      0.624138     Biso  1.000000 Au
   Au4997     1.0     0.127586      0.568965      0.624138     Biso  1.000000 Au
   Au4998     1.0     0.155171      0.568965      0.651725     Biso  1.000000 Au
   Au4999     1.0     0.155171      0.596551      0.624138     Biso  1.000000 Au
   Au5000     1.0     0.182758      0.568965      0.624138     Biso  1.000000 Au
   Au5001     1.0     0.182758      0.596551      0.651725     Biso  1.000000 Au
   Au5002     1.0     0.210345      0.568965      0.651725     Biso  1.000000 Au
   Au5003     1.0     0.210345      0.596551      0.624138     Biso  1.000000 Au
   Au5004     1.0     0.237930      0.568965      0.624138     Biso  1.000000 Au
   Au5005     1.0     0.237930      0.596551      0.651725     Biso  1.000000 Au
   Au5006     1.0     0.265517      0.568965      0.651725     Biso  1.000000 Au
   Au5007     1.0     0.265517      0.596551      0.624138     Biso  1.000000 Au
   Au5008     1.0     0.293103      0.568965      0.624138     Biso  1.000000 Au
   Au5009     1.0     0.293103      0.596551      0.651725     Biso  1.000000 Au
   Au5010     1.0     0.320690      0.568965      0.651725     Biso  1.000000 Au
   Au5011     1.0     0.320690      0.596551      0.624138     Biso  1.000000 Au
   Au5012     1.0     0.348275      0.568965      0.624138     Biso  1.000000 Au
   Au5013     1.0     0.348275      0.596551      0.651725     Biso  1.000000 Au
   Au5014     1.0     0.375862      0.568965      0.651725     Biso  1.000000 Au
   Au5015     1.0     0.375862      0.596551      0.624138     Biso  1.000000 Au
   Au5016     1.0     0.403448      0.568965      0.624138     Biso  1.000000 Au
   Au5017     1.0     0.403448      0.596551      0.651725     Biso  1.000000 Au
   Au5018     1.0     0.431035      0.568965      0.651725     Biso  1.000000 Au
   Au5019     1.0     0.431035      0.596551      0.624138     Biso  1.000000 Au
   Au5020     1.0     0.458620      0.568965      0.624138     Biso  1.000000 Au
   Au5021     1.0     0.458620      0.596551      0.651725     Biso  1.000000 Au
   Au5022     1.0     0.486207      0.568965      0.651725     Biso  1.000000 Au
   Au5023     1.0     0.486207      0.596551      0.624138     Biso  1.000000 Au
   Au5024     1.0     0.513793      0.568965      0.624138     Biso  1.000000 Au
   Au5025     1.0     0.513793      0.596551      0.651725     Biso  1.000000 Au
   Au5026     1.0     0.541380      0.568965      0.651725     Biso  1.000000 Au
   Au5027     1.0     0.541380      0.596551      0.624138     Biso  1.000000 Au
   Au5028     1.0     0.568965      0.568965      0.624138     Biso  1.000000 Au
   Au5029     1.0     0.568965      0.596551      0.651725     Biso  1.000000 Au
   Au5030     1.0     0.596551      0.568965      0.651725     Biso  1.000000 Au
   Au5031     1.0     0.596551      0.596551      0.624138     Biso  1.000000 Au
   Au5032     1.0     0.624138      0.568965      0.624138     Biso  1.000000 Au
   Au5033     1.0     0.624138      0.596551      0.651725     Biso  1.000000 Au
   Au5034     1.0     0.651725      0.568965      0.651725     Biso  1.000000 Au
   Au5035     1.0     0.651725      0.596551      0.624138     Biso  1.000000 Au
   Au5036     1.0     0.679310      0.568965      0.624138     Biso  1.000000 Au
   Au5037     1.0     0.679310      0.596551      0.651725     Biso  1.000000 Au
   Au5038     1.0     0.706897      0.568965      0.651725     Biso  1.000000 Au
   Au5039     1.0     0.706897      0.596551      0.624138     Biso  1.000000 Au
   Au5040     1.0     0.734483      0.568965      0.624138     Biso  1.000000 Au
   Au5041     1.0     0.734483      0.596551      0.651725     Biso  1.000000 Au
   Au5042     1.0     0.762070      0.568965      0.651725     Biso  1.000000 Au
   Au5043     1.0     0.762070      0.596551      0.624138     Biso  1.000000 Au
   Au5044     1.0     0.789655      0.568965      0.624138     Biso  1.000000 Au
   Au5045     1.0     0.789655      0.596551      0.651725     Biso  1.000000 Au
   Au5046     1.0     0.817242      0.568965      0.651725     Biso  1.000000 Au
   Au5047     1.0     0.817242      0.596551      0.624138     Biso  1.000000 Au
   Au5048     1.0     0.844828      0.568965      0.624138     Biso  1.000000 Au
   Au5049     1.0     0.844828      0.596551      0.651725     Biso  1.000000 Au
   Au5050     1.0     0.872413      0.596551      0.624138     Biso  1.000000 Au
   Au5051     1.0     0.155171      0.624138      0.651725     Biso  1.000000 Au
   Au5052     1.0     0.155171      0.651725      0.624138     Biso  1.000000 Au
   Au5053     1.0     0.182758      0.624138      0.624138     Biso  1.000000 Au
   Au5054     1.0     0.182758      0.651725      0.651725     Biso  1.000000 Au
   Au5055     1.0     0.210345      0.624138      0.651725     Biso  1.000000 Au
   Au5056     1.0     0.210345      0.651725      0.624138     Biso  1.000000 Au
   Au5057     1.0     0.237930      0.624138      0.624138     Biso  1.000000 Au
   Au5058     1.0     0.237930      0.651725      0.651725     Biso  1.000000 Au
   Au5059     1.0     0.265517      0.624138      0.651725     Biso  1.000000 Au
   Au5060     1.0     0.265517      0.651725      0.624138     Biso  1.000000 Au
   Au5061     1.0     0.293103      0.624138      0.624138     Biso  1.000000 Au
   Au5062     1.0     0.293103      0.651725      0.651725     Biso  1.000000 Au
   Au5063     1.0     0.320690      0.624138      0.651725     Biso  1.000000 Au
   Au5064     1.0     0.320690      0.651725      0.624138     Biso  1.000000 Au
   Au5065     1.0     0.348275      0.624138      0.624138     Biso  1.000000 Au
   Au5066     1.0     0.348275      0.651725      0.651725     Biso  1.000000 Au
   Au5067     1.0     0.375862      0.624138      0.651725     Biso  1.000000 Au
   Au5068     1.0     0.375862      0.651725      0.624138     Biso  1.000000 Au
   Au5069     1.0     0.403448      0.624138      0.624138     Biso  1.000000 Au
   Au5070     1.0     0.403448      0.651725      0.651725     Biso  1.000000 Au
   Au5071     1.0     0.431035      0.624138      0.651725     Biso  1.000000 Au
   Au5072     1.0     0.431035      0.651725      0.624138     Biso  1.000000 Au
   Au5073     1.0     0.458620      0.624138      0.624138     Biso  1.000000 Au
   Au5074     1.0     0.458620      0.651725      0.651725     Biso  1.000000 Au
   Au5075     1.0     0.486207      0.624138      0.651725     Biso  1.000000 Au
   Au5076     1.0     0.486207      0.651725      0.624138     Biso  1.000000 Au
   Au5077     1.0     0.513793      0.624138      0.624138     Biso  1.000000 Au
   Au5078     1.0     0.513793      0.651725      0.651725     Biso  1.000000 Au
   Au5079     1.0     0.541380      0.624138      0.651725     Biso  1.000000 Au
   Au5080     1.0     0.541380      0.651725      0.624138     Biso  1.000000 Au
   Au5081     1.0     0.568965      0.624138      0.624138     Biso  1.000000 Au
   Au5082     1.0     0.568965      0.651725      0.651725     Biso  1.000000 Au
   Au5083     1.0     0.596551      0.624138      0.651725     Biso  1.000000 Au
   Au5084     1.0     0.596551      0.651725      0.624138     Biso  1.000000 Au
   Au5085     1.0     0.624138      0.624138      0.624138     Biso  1.000000 Au
   Au5086     1.0     0.624138      0.651725      0.651725     Biso  1.000000 Au
   Au5087     1.0     0.651725      0.624138      0.651725     Biso  1.000000 Au
   Au5088     1.0     0.651725      0.651725      0.624138     Biso  1.000000 Au
   Au5089     1.0     0.679310      0.624138      0.624138     Biso  1.000000 Au
   Au5090     1.0     0.679310      0.651725      0.651725     Biso  1.000000 Au
   Au5091     1.0     0.706897      0.624138      0.651725     Biso  1.000000 Au
   Au5092     1.0     0.706897      0.651725      0.624138     Biso  1.000000 Au
   Au5093     1.0     0.734483      0.624138      0.624138     Biso  1.000000 Au
   Au5094     1.0     0.734483      0.651725      0.651725     Biso  1.000000 Au
   Au5095     1.0     0.762070      0.624138      0.651725     Biso  1.000000 Au
   Au5096     1.0     0.762070      0.651725      0.624138     Biso  1.000000 Au
   Au5097     1.0     0.789655      0.624138      0.624138     Biso  1.000000 Au
   Au5098     1.0     0.789655      0.651725      0.651725     Biso  1.000000 Au
   Au5099     1.0     0.817242      0.624138      0.651725     Biso  1.000000 Au
   Au5100     1.0     0.817242      0.651725      0.624138     Biso  1.000000 Au
   Au5101     1.0     0.844828      0.624138      0.624138     Biso  1.000000 Au
   Au5102     1.0     0.182758      0.679310      0.624138     Biso  1.000000 Au
   Au5103     1.0     0.210345      0.679310      0.651725     Biso  1.000000 Au
   Au5104     1.0     0.210345      0.706897      0.624138     Biso  1.000000 Au
   Au5105     1.0     0.237930      0.679310      0.624138     Biso  1.000000 Au
   Au5106     1.0     0.237930      0.706897      0.651725     Biso  1.000000 Au
   Au5107     1.0     0.265517      0.679310      0.651725     Biso  1.000000 Au
   Au5108     1.0     0.265517      0.706897      0.624138     Biso  1.000000 Au
   Au5109     1.0     0.293103      0.679310      0.624138     Biso  1.000000 Au
   Au5110     1.0     0.293103      0.706897      0.651725     Biso  1.000000 Au
   Au5111     1.0     0.320690      0.679310      0.651725     Biso  1.000000 Au
   Au5112     1.0     0.320690      0.706897      0.624138     Biso  1.000000 Au
   Au5113     1.0     0.348275      0.679310      0.624138     Biso  1.000000 Au
   Au5114     1.0     0.348275      0.706897      0.651725     Biso  1.000000 Au
   Au5115     1.0     0.375862      0.679310      0.651725     Biso  1.000000 Au
   Au5116     1.0     0.375862      0.706897      0.624138     Biso  1.000000 Au
   Au5117     1.0     0.403448      0.679310      0.624138     Biso  1.000000 Au
   Au5118     1.0     0.403448      0.706897      0.651725     Biso  1.000000 Au
   Au5119     1.0     0.431035      0.679310      0.651725     Biso  1.000000 Au
   Au5120     1.0     0.431035      0.706897      0.624138     Biso  1.000000 Au
   Au5121     1.0     0.458620      0.679310      0.624138     Biso  1.000000 Au
   Au5122     1.0     0.458620      0.706897      0.651725     Biso  1.000000 Au
   Au5123     1.0     0.486207      0.679310      0.651725     Biso  1.000000 Au
   Au5124     1.0     0.486207      0.706897      0.624138     Biso  1.000000 Au
   Au5125     1.0     0.513793      0.679310      0.624138     Biso  1.000000 Au
   Au5126     1.0     0.513793      0.706897      0.651725     Biso  1.000000 Au
   Au5127     1.0     0.541380      0.679310      0.651725     Biso  1.000000 Au
   Au5128     1.0     0.541380      0.706897      0.624138     Biso  1.000000 Au
   Au5129     1.0     0.568965      0.679310      0.624138     Biso  1.000000 Au
   Au5130     1.0     0.568965      0.706897      0.651725     Biso  1.000000 Au
   Au5131     1.0     0.596551      0.679310      0.651725     Biso  1.000000 Au
   Au5132     1.0     0.596551      0.706897      0.624138     Biso  1.000000 Au
   Au5133     1.0     0.624138      0.679310      0.624138     Biso  1.000000 Au
   Au5134     1.0     0.624138      0.706897      0.651725     Biso  1.000000 Au
   Au5135     1.0     0.651725      0.679310      0.651725     Biso  1.000000 Au
   Au5136     1.0     0.651725      0.706897      0.624138     Biso  1.000000 Au
   Au5137     1.0     0.679310      0.679310      0.624138     Biso  1.000000 Au
   Au5138     1.0     0.679310      0.706897      0.651725     Biso  1.000000 Au
   Au5139     1.0     0.706897      0.679310      0.651725     Biso  1.000000 Au
   Au5140     1.0     0.706897      0.706897      0.624138     Biso  1.000000 Au
   Au5141     1.0     0.734483      0.679310      0.624138     Biso  1.000000 Au
   Au5142     1.0     0.734483      0.706897      0.651725     Biso  1.000000 Au
   Au5143     1.0     0.762070      0.679310      0.651725     Biso  1.000000 Au
   Au5144     1.0     0.762070      0.706897      0.624138     Biso  1.000000 Au
   Au5145     1.0     0.789655      0.679310      0.624138     Biso  1.000000 Au
   Au5146     1.0     0.789655      0.706897      0.651725     Biso  1.000000 Au
   Au5147     1.0     0.817242      0.679310      0.651725     Biso  1.000000 Au
   Au5148     1.0     0.817242      0.706897      0.624138     Biso  1.000000 Au
   Au5149     1.0     0.210345      0.734483      0.651725     Biso  1.000000 Au
   Au5150     1.0     0.237930      0.734483      0.624138     Biso  1.000000 Au
   Au5151     1.0     0.237930      0.762070      0.651725     Biso  1.000000 Au
   Au5152     1.0     0.265517      0.734483      0.651725     Biso  1.000000 Au
   Au5153     1.0     0.265517      0.762070      0.624138     Biso  1.000000 Au
   Au5154     1.0     0.293103      0.734483      0.624138     Biso  1.000000 Au
   Au5155     1.0     0.293103      0.762070      0.651725     Biso  1.000000 Au
   Au5156     1.0     0.320690      0.734483      0.651725     Biso  1.000000 Au
   Au5157     1.0     0.320690      0.762070      0.624138     Biso  1.000000 Au
   Au5158     1.0     0.348275      0.734483      0.624138     Biso  1.000000 Au
   Au5159     1.0     0.348275      0.762070      0.651725     Biso  1.000000 Au
   Au5160     1.0     0.375862      0.734483      0.651725     Biso  1.000000 Au
   Au5161     1.0     0.375862      0.762070      0.624138     Biso  1.000000 Au
   Au5162     1.0     0.403448      0.734483      0.624138     Biso  1.000000 Au
   Au5163     1.0     0.403448      0.762070      0.651725     Biso  1.000000 Au
   Au5164     1.0     0.431035      0.734483      0.651725     Biso  1.000000 Au
   Au5165     1.0     0.431035      0.762070      0.624138     Biso  1.000000 Au
   Au5166     1.0     0.458620      0.734483      0.624138     Biso  1.000000 Au
   Au5167     1.0     0.458620      0.762070      0.651725     Biso  1.000000 Au
   Au5168     1.0     0.486207      0.734483      0.651725     Biso  1.000000 Au
   Au5169     1.0     0.486207      0.762070      0.624138     Biso  1.000000 Au
   Au5170     1.0     0.513793      0.734483      0.624138     Biso  1.000000 Au
   Au5171     1.0     0.513793      0.762070      0.651725     Biso  1.000000 Au
   Au5172     1.0     0.541380      0.734483      0.651725     Biso  1.000000 Au
   Au5173     1.0     0.541380      0.762070      0.624138     Biso  1.000000 Au
   Au5174     1.0     0.568965      0.734483      0.624138     Biso  1.000000 Au
   Au5175     1.0     0.568965      0.762070      0.651725     Biso  1.000000 Au
   Au5176     1.0     0.596551      0.734483      0.651725     Biso  1.000000 Au
   Au5177     1.0     0.596551      0.762070      0.624138     Biso  1.000000 Au
   Au5178     1.0     0.624138      0.734483      0.624138     Biso  1.000000 Au
   Au5179     1.0     0.624138      0.762070      0.651725     Biso  1.000000 Au
   Au5180     1.0     0.651725      0.734483      0.651725     Biso  1.000000 Au
   Au5181     1.0     0.651725      0.762070      0.624138     Biso  1.000000 Au
   Au5182     1.0     0.679310      0.734483      0.624138     Biso  1.000000 Au
   Au5183     1.0     0.679310      0.762070      0.651725     Biso  1.000000 Au
   Au5184     1.0     0.706897      0.734483      0.651725     Biso  1.000000 Au
   Au5185     1.0     0.706897      0.762070      0.624138     Biso  1.000000 Au
   Au5186     1.0     0.734483      0.734483      0.624138     Biso  1.000000 Au
   Au5187     1.0     0.734483      0.762070      0.651725     Biso  1.000000 Au
   Au5188     1.0     0.762070      0.734483      0.651725     Biso  1.000000 Au
   Au5189     1.0     0.762070      0.762070      0.624138     Biso  1.000000 Au
   Au5190     1.0     0.789655      0.734483      0.624138     Biso  1.000000 Au
   Au5191     1.0     0.265517      0.789655      0.651725     Biso  1.000000 Au
   Au5192     1.0     0.293103      0.789655      0.624138     Biso  1.000000 Au
   Au5193     1.0     0.320690      0.789655      0.651725     Biso  1.000000 Au
   Au5194     1.0     0.320690      0.817242      0.624138     Biso  1.000000 Au
   Au5195     1.0     0.348275      0.789655      0.624138     Biso  1.000000 Au
   Au5196     1.0     0.348275      0.817242      0.651725     Biso  1.000000 Au
   Au5197     1.0     0.375862      0.789655      0.651725     Biso  1.000000 Au
   Au5198     1.0     0.375862      0.817242      0.624138     Biso  1.000000 Au
   Au5199     1.0     0.403448      0.789655      0.624138     Biso  1.000000 Au
   Au5200     1.0     0.403448      0.817242      0.651725     Biso  1.000000 Au
   Au5201     1.0     0.431035      0.789655      0.651725     Biso  1.000000 Au
   Au5202     1.0     0.431035      0.817242      0.624138     Biso  1.000000 Au
   Au5203     1.0     0.458620      0.789655      0.624138     Biso  1.000000 Au
   Au5204     1.0     0.458620      0.817242      0.651725     Biso  1.000000 Au
   Au5205     1.0     0.486207      0.789655      0.651725     Biso  1.000000 Au
   Au5206     1.0     0.486207      0.817242      0.624138     Biso  1.000000 Au
   Au5207     1.0     0.513793      0.789655      0.624138     Biso  1.000000 Au
   Au5208     1.0     0.513793      0.817242      0.651725     Biso  1.000000 Au
   Au5209     1.0     0.541380      0.789655      0.651725     Biso  1.000000 Au
   Au5210     1.0     0.541380      0.817242      0.624138     Biso  1.000000 Au
   Au5211     1.0     0.568965      0.789655      0.624138     Biso  1.000000 Au
   Au5212     1.0     0.568965      0.817242      0.651725     Biso  1.000000 Au
   Au5213     1.0     0.596551      0.789655      0.651725     Biso  1.000000 Au
   Au5214     1.0     0.596551      0.817242      0.624138     Biso  1.000000 Au
   Au5215     1.0     0.624138      0.789655      0.624138     Biso  1.000000 Au
   Au5216     1.0     0.624138      0.817242      0.651725     Biso  1.000000 Au
   Au5217     1.0     0.651725      0.789655      0.651725     Biso  1.000000 Au
   Au5218     1.0     0.651725      0.817242      0.624138     Biso  1.000000 Au
   Au5219     1.0     0.679310      0.789655      0.624138     Biso  1.000000 Au
   Au5220     1.0     0.679310      0.817242      0.651725     Biso  1.000000 Au
   Au5221     1.0     0.706897      0.789655      0.651725     Biso  1.000000 Au
   Au5222     1.0     0.706897      0.817242      0.624138     Biso  1.000000 Au
   Au5223     1.0     0.734483      0.789655      0.624138     Biso  1.000000 Au
   Au5224     1.0     0.348275      0.844828      0.624138     Biso  1.000000 Au
   Au5225     1.0     0.375862      0.844828      0.651725     Biso  1.000000 Au
   Au5226     1.0     0.403448      0.844828      0.624138     Biso  1.000000 Au
   Au5227     1.0     0.431035      0.844828      0.651725     Biso  1.000000 Au
   Au5228     1.0     0.431035      0.872413      0.624138     Biso  1.000000 Au
   Au5229     1.0     0.458620      0.844828      0.624138     Biso  1.000000 Au
   Au5230     1.0     0.458620      0.872413      0.651725     Biso  1.000000 Au
   Au5231     1.0     0.486207      0.844828      0.651725     Biso  1.000000 Au
   Au5232     1.0     0.486207      0.872413      0.624138     Biso  1.000000 Au
   Au5233     1.0     0.513793      0.844828      0.624138     Biso  1.000000 Au
   Au5234     1.0     0.513793      0.872413      0.651725     Biso  1.000000 Au
   Au5235     1.0     0.541380      0.844828      0.651725     Biso  1.000000 Au
   Au5236     1.0     0.541380      0.872413      0.624138     Biso  1.000000 Au
   Au5237     1.0     0.568965      0.844828      0.624138     Biso  1.000000 Au
   Au5238     1.0     0.596551      0.844828      0.651725     Biso  1.000000 Au
   Au5239     1.0     0.596551      0.872413      0.624138     Biso  1.000000 Au
   Au5240     1.0     0.624138      0.844828      0.624138     Biso  1.000000 Au
   Au5241     1.0     0.431035      0.155171      0.679310     Biso  1.000000 Au
   Au5242     1.0     0.458620      0.155171      0.706897     Biso  1.000000 Au
   Au5243     1.0     0.486207      0.155171      0.679310     Biso  1.000000 Au
   Au5244     1.0     0.513793      0.155171      0.706897     Biso  1.000000 Au
   Au5245     1.0     0.541380      0.155171      0.679310     Biso  1.000000 Au
   Au5246     1.0     0.596551      0.155171      0.679310     Biso  1.000000 Au
   Au5247     1.0     0.320690      0.210345      0.679310     Biso  1.000000 Au
   Au5248     1.0     0.348275      0.182758      0.679310     Biso  1.000000 Au
   Au5249     1.0     0.348275      0.210345      0.706897     Biso  1.000000 Au
   Au5250     1.0     0.375862      0.182758      0.706897     Biso  1.000000 Au
   Au5251     1.0     0.375862      0.210345      0.679310     Biso  1.000000 Au
   Au5252     1.0     0.403448      0.182758      0.679310     Biso  1.000000 Au
   Au5253     1.0     0.403448      0.210345      0.706897     Biso  1.000000 Au
   Au5254     1.0     0.431035      0.182758      0.706897     Biso  1.000000 Au
   Au5255     1.0     0.431035      0.210345      0.679310     Biso  1.000000 Au
   Au5256     1.0     0.458620      0.182758      0.679310     Biso  1.000000 Au
   Au5257     1.0     0.458620      0.210345      0.706897     Biso  1.000000 Au
   Au5258     1.0     0.486207      0.182758      0.706897     Biso  1.000000 Au
   Au5259     1.0     0.486207      0.210345      0.679310     Biso  1.000000 Au
   Au5260     1.0     0.513793      0.182758      0.679310     Biso  1.000000 Au
   Au5261     1.0     0.513793      0.210345      0.706897     Biso  1.000000 Au
   Au5262     1.0     0.541380      0.182758      0.706897     Biso  1.000000 Au
   Au5263     1.0     0.541380      0.210345      0.679310     Biso  1.000000 Au
   Au5264     1.0     0.568965      0.182758      0.679310     Biso  1.000000 Au
   Au5265     1.0     0.568965      0.210345      0.706897     Biso  1.000000 Au
   Au5266     1.0     0.596551      0.182758      0.706897     Biso  1.000000 Au
   Au5267     1.0     0.596551      0.210345      0.679310     Biso  1.000000 Au
   Au5268     1.0     0.624138      0.182758      0.679310     Biso  1.000000 Au
   Au5269     1.0     0.624138      0.210345      0.706897     Biso  1.000000 Au
   Au5270     1.0     0.651725      0.210345      0.679310     Biso  1.000000 Au
   Au5271     1.0     0.679310      0.210345      0.706897     Biso  1.000000 Au
   Au5272     1.0     0.706897      0.210345      0.679310     Biso  1.000000 Au
   Au5273     1.0     0.265517      0.265517      0.679310     Biso  1.000000 Au
   Au5274     1.0     0.293103      0.237930      0.679310     Biso  1.000000 Au
   Au5275     1.0     0.293103      0.265517      0.706897     Biso  1.000000 Au
   Au5276     1.0     0.320690      0.237930      0.706897     Biso  1.000000 Au
   Au5277     1.0     0.320690      0.265517      0.679310     Biso  1.000000 Au
   Au5278     1.0     0.348275      0.237930      0.679310     Biso  1.000000 Au
   Au5279     1.0     0.348275      0.265517      0.706897     Biso  1.000000 Au
   Au5280     1.0     0.375862      0.237930      0.706897     Biso  1.000000 Au
   Au5281     1.0     0.375862      0.265517      0.679310     Biso  1.000000 Au
   Au5282     1.0     0.403448      0.237930      0.679310     Biso  1.000000 Au
   Au5283     1.0     0.403448      0.265517      0.706897     Biso  1.000000 Au
   Au5284     1.0     0.431035      0.237930      0.706897     Biso  1.000000 Au
   Au5285     1.0     0.431035      0.265517      0.679310     Biso  1.000000 Au
   Au5286     1.0     0.458620      0.237930      0.679310     Biso  1.000000 Au
   Au5287     1.0     0.458620      0.265517      0.706897     Biso  1.000000 Au
   Au5288     1.0     0.486207      0.237930      0.706897     Biso  1.000000 Au
   Au5289     1.0     0.486207      0.265517      0.679310     Biso  1.000000 Au
   Au5290     1.0     0.513793      0.237930      0.679310     Biso  1.000000 Au
   Au5291     1.0     0.513793      0.265517      0.706897     Biso  1.000000 Au
   Au5292     1.0     0.541380      0.237930      0.706897     Biso  1.000000 Au
   Au5293     1.0     0.541380      0.265517      0.679310     Biso  1.000000 Au
   Au5294     1.0     0.568965      0.237930      0.679310     Biso  1.000000 Au
   Au5295     1.0     0.568965      0.265517      0.706897     Biso  1.000000 Au
   Au5296     1.0     0.596551      0.237930      0.706897     Biso  1.000000 Au
   Au5297     1.0     0.596551      0.265517      0.679310     Biso  1.000000 Au
   Au5298     1.0     0.624138      0.237930      0.679310     Biso  1.000000 Au
   Au5299     1.0     0.624138      0.265517      0.706897     Biso  1.000000 Au
   Au5300     1.0     0.651725      0.237930      0.706897     Biso  1.000000 Au
   Au5301     1.0     0.651725      0.265517      0.679310     Biso  1.000000 Au
   Au5302     1.0     0.679310      0.237930      0.679310     Biso  1.000000 Au
   Au5303     1.0     0.679310      0.265517      0.706897     Biso  1.000000 Au
   Au5304     1.0     0.706897      0.237930      0.706897     Biso  1.000000 Au
   Au5305     1.0     0.706897      0.265517      0.679310     Biso  1.000000 Au
   Au5306     1.0     0.734483      0.237930      0.679310     Biso  1.000000 Au
   Au5307     1.0     0.734483      0.265517      0.706897     Biso  1.000000 Au
   Au5308     1.0     0.762070      0.265517      0.679310     Biso  1.000000 Au
   Au5309     1.0     0.210345      0.320690      0.679310     Biso  1.000000 Au
   Au5310     1.0     0.237930      0.293103      0.679310     Biso  1.000000 Au
   Au5311     1.0     0.237930      0.320690      0.706897     Biso  1.000000 Au
   Au5312     1.0     0.265517      0.293103      0.706897     Biso  1.000000 Au
   Au5313     1.0     0.265517      0.320690      0.679310     Biso  1.000000 Au
   Au5314     1.0     0.293103      0.293103      0.679310     Biso  1.000000 Au
   Au5315     1.0     0.293103      0.320690      0.706897     Biso  1.000000 Au
   Au5316     1.0     0.320690      0.293103      0.706897     Biso  1.000000 Au
   Au5317     1.0     0.320690      0.320690      0.679310     Biso  1.000000 Au
   Au5318     1.0     0.348275      0.293103      0.679310     Biso  1.000000 Au
   Au5319     1.0     0.348275      0.320690      0.706897     Biso  1.000000 Au
   Au5320     1.0     0.375862      0.293103      0.706897     Biso  1.000000 Au
   Au5321     1.0     0.375862      0.320690      0.679310     Biso  1.000000 Au
   Au5322     1.0     0.403448      0.293103      0.679310     Biso  1.000000 Au
   Au5323     1.0     0.403448      0.320690      0.706897     Biso  1.000000 Au
   Au5324     1.0     0.431035      0.293103      0.706897     Biso  1.000000 Au
   Au5325     1.0     0.431035      0.320690      0.679310     Biso  1.000000 Au
   Au5326     1.0     0.458620      0.293103      0.679310     Biso  1.000000 Au
   Au5327     1.0     0.458620      0.320690      0.706897     Biso  1.000000 Au
   Au5328     1.0     0.486207      0.293103      0.706897     Biso  1.000000 Au
   Au5329     1.0     0.486207      0.320690      0.679310     Biso  1.000000 Au
   Au5330     1.0     0.513793      0.293103      0.679310     Biso  1.000000 Au
   Au5331     1.0     0.513793      0.320690      0.706897     Biso  1.000000 Au
   Au5332     1.0     0.541380      0.293103      0.706897     Biso  1.000000 Au
   Au5333     1.0     0.541380      0.320690      0.679310     Biso  1.000000 Au
   Au5334     1.0     0.568965      0.293103      0.679310     Biso  1.000000 Au
   Au5335     1.0     0.568965      0.320690      0.706897     Biso  1.000000 Au
   Au5336     1.0     0.596551      0.293103      0.706897     Biso  1.000000 Au
   Au5337     1.0     0.596551      0.320690      0.679310     Biso  1.000000 Au
   Au5338     1.0     0.624138      0.293103      0.679310     Biso  1.000000 Au
   Au5339     1.0     0.624138      0.320690      0.706897     Biso  1.000000 Au
   Au5340     1.0     0.651725      0.293103      0.706897     Biso  1.000000 Au
   Au5341     1.0     0.651725      0.320690      0.679310     Biso  1.000000 Au
   Au5342     1.0     0.679310      0.293103      0.679310     Biso  1.000000 Au
   Au5343     1.0     0.679310      0.320690      0.706897     Biso  1.000000 Au
   Au5344     1.0     0.706897      0.293103      0.706897     Biso  1.000000 Au
   Au5345     1.0     0.706897      0.320690      0.679310     Biso  1.000000 Au
   Au5346     1.0     0.734483      0.293103      0.679310     Biso  1.000000 Au
   Au5347     1.0     0.734483      0.320690      0.706897     Biso  1.000000 Au
   Au5348     1.0     0.762070      0.293103      0.706897     Biso  1.000000 Au
   Au5349     1.0     0.762070      0.320690      0.679310     Biso  1.000000 Au
   Au5350     1.0     0.789655      0.293103      0.679310     Biso  1.000000 Au
   Au5351     1.0     0.789655      0.320690      0.706897     Biso  1.000000 Au
   Au5352     1.0     0.182758      0.348275      0.679310     Biso  1.000000 Au
   Au5353     1.0     0.182758      0.375862      0.706897     Biso  1.000000 Au
   Au5354     1.0     0.210345      0.348275      0.706897     Biso  1.000000 Au
   Au5355     1.0     0.210345      0.375862      0.679310     Biso  1.000000 Au
   Au5356     1.0     0.237930      0.348275      0.679310     Biso  1.000000 Au
   Au5357     1.0     0.237930      0.375862      0.706897     Biso  1.000000 Au
   Au5358     1.0     0.265517      0.348275      0.706897     Biso  1.000000 Au
   Au5359     1.0     0.265517      0.375862      0.679310     Biso  1.000000 Au
   Au5360     1.0     0.293103      0.348275      0.679310     Biso  1.000000 Au
   Au5361     1.0     0.293103      0.375862      0.706897     Biso  1.000000 Au
   Au5362     1.0     0.320690      0.348275      0.706897     Biso  1.000000 Au
   Au5363     1.0     0.320690      0.375862      0.679310     Biso  1.000000 Au
   Au5364     1.0     0.348275      0.348275      0.679310     Biso  1.000000 Au
   Au5365     1.0     0.348275      0.375862      0.706897     Biso  1.000000 Au
   Au5366     1.0     0.375862      0.348275      0.706897     Biso  1.000000 Au
   Au5367     1.0     0.375862      0.375862      0.679310     Biso  1.000000 Au
   Au5368     1.0     0.403448      0.348275      0.679310     Biso  1.000000 Au
   Au5369     1.0     0.403448      0.375862      0.706897     Biso  1.000000 Au
   Au5370     1.0     0.431035      0.348275      0.706897     Biso  1.000000 Au
   Au5371     1.0     0.431035      0.375862      0.679310     Biso  1.000000 Au
   Au5372     1.0     0.458620      0.348275      0.679310     Biso  1.000000 Au
   Au5373     1.0     0.458620      0.375862      0.706897     Biso  1.000000 Au
   Au5374     1.0     0.486207      0.348275      0.706897     Biso  1.000000 Au
   Au5375     1.0     0.486207      0.375862      0.679310     Biso  1.000000 Au
   Au5376     1.0     0.513793      0.348275      0.679310     Biso  1.000000 Au
   Au5377     1.0     0.513793      0.375862      0.706897     Biso  1.000000 Au
   Au5378     1.0     0.541380      0.348275      0.706897     Biso  1.000000 Au
   Au5379     1.0     0.541380      0.375862      0.679310     Biso  1.000000 Au
   Au5380     1.0     0.568965      0.348275      0.679310     Biso  1.000000 Au
   Au5381     1.0     0.568965      0.375862      0.706897     Biso  1.000000 Au
   Au5382     1.0     0.596551      0.348275      0.706897     Biso  1.000000 Au
   Au5383     1.0     0.596551      0.375862      0.679310     Biso  1.000000 Au
   Au5384     1.0     0.624138      0.348275      0.679310     Biso  1.000000 Au
   Au5385     1.0     0.624138      0.375862      0.706897     Biso  1.000000 Au
   Au5386     1.0     0.651725      0.348275      0.706897     Biso  1.000000 Au
   Au5387     1.0     0.651725      0.375862      0.679310     Biso  1.000000 Au
   Au5388     1.0     0.679310      0.348275      0.679310     Biso  1.000000 Au
   Au5389     1.0     0.679310      0.375862      0.706897     Biso  1.000000 Au
   Au5390     1.0     0.706897      0.348275      0.706897     Biso  1.000000 Au
   Au5391     1.0     0.706897      0.375862      0.679310     Biso  1.000000 Au
   Au5392     1.0     0.734483      0.348275      0.679310     Biso  1.000000 Au
   Au5393     1.0     0.734483      0.375862      0.706897     Biso  1.000000 Au
   Au5394     1.0     0.762070      0.348275      0.706897     Biso  1.000000 Au
   Au5395     1.0     0.762070      0.375862      0.679310     Biso  1.000000 Au
   Au5396     1.0     0.789655      0.348275      0.679310     Biso  1.000000 Au
   Au5397     1.0     0.789655      0.375862      0.706897     Biso  1.000000 Au
   Au5398     1.0     0.817242      0.375862      0.679310     Biso  1.000000 Au
   Au5399     1.0     0.155171      0.431035      0.679310     Biso  1.000000 Au
   Au5400     1.0     0.182758      0.403448      0.679310     Biso  1.000000 Au
   Au5401     1.0     0.182758      0.431035      0.706897     Biso  1.000000 Au
   Au5402     1.0     0.210345      0.403448      0.706897     Biso  1.000000 Au
   Au5403     1.0     0.210345      0.431035      0.679310     Biso  1.000000 Au
   Au5404     1.0     0.237930      0.403448      0.679310     Biso  1.000000 Au
   Au5405     1.0     0.237930      0.431035      0.706897     Biso  1.000000 Au
   Au5406     1.0     0.265517      0.403448      0.706897     Biso  1.000000 Au
   Au5407     1.0     0.265517      0.431035      0.679310     Biso  1.000000 Au
   Au5408     1.0     0.293103      0.403448      0.679310     Biso  1.000000 Au
   Au5409     1.0     0.293103      0.431035      0.706897     Biso  1.000000 Au
   Au5410     1.0     0.320690      0.403448      0.706897     Biso  1.000000 Au
   Au5411     1.0     0.320690      0.431035      0.679310     Biso  1.000000 Au
   Au5412     1.0     0.348275      0.403448      0.679310     Biso  1.000000 Au
   Au5413     1.0     0.348275      0.431035      0.706897     Biso  1.000000 Au
   Au5414     1.0     0.375862      0.403448      0.706897     Biso  1.000000 Au
   Au5415     1.0     0.375862      0.431035      0.679310     Biso  1.000000 Au
   Au5416     1.0     0.403448      0.403448      0.679310     Biso  1.000000 Au
   Au5417     1.0     0.403448      0.431035      0.706897     Biso  1.000000 Au
   Au5418     1.0     0.431035      0.403448      0.706897     Biso  1.000000 Au
   Au5419     1.0     0.431035      0.431035      0.679310     Biso  1.000000 Au
   Au5420     1.0     0.458620      0.403448      0.679310     Biso  1.000000 Au
   Au5421     1.0     0.458620      0.431035      0.706897     Biso  1.000000 Au
   Au5422     1.0     0.486207      0.403448      0.706897     Biso  1.000000 Au
   Au5423     1.0     0.486207      0.431035      0.679310     Biso  1.000000 Au
   Au5424     1.0     0.513793      0.403448      0.679310     Biso  1.000000 Au
   Au5425     1.0     0.513793      0.431035      0.706897     Biso  1.000000 Au
   Au5426     1.0     0.541380      0.403448      0.706897     Biso  1.000000 Au
   Au5427     1.0     0.541380      0.431035      0.679310     Biso  1.000000 Au
   Au5428     1.0     0.568965      0.403448      0.679310     Biso  1.000000 Au
   Au5429     1.0     0.568965      0.431035      0.706897     Biso  1.000000 Au
   Au5430     1.0     0.596551      0.403448      0.706897     Biso  1.000000 Au
   Au5431     1.0     0.596551      0.431035      0.679310     Biso  1.000000 Au
   Au5432     1.0     0.624138      0.403448      0.679310     Biso  1.000000 Au
   Au5433     1.0     0.624138      0.431035      0.706897     Biso  1.000000 Au
   Au5434     1.0     0.651725      0.403448      0.706897     Biso  1.000000 Au
   Au5435     1.0     0.651725      0.431035      0.679310     Biso  1.000000 Au
   Au5436     1.0     0.679310      0.403448      0.679310     Biso  1.000000 Au
   Au5437     1.0     0.679310      0.431035      0.706897     Biso  1.000000 Au
   Au5438     1.0     0.706897      0.403448      0.706897     Biso  1.000000 Au
   Au5439     1.0     0.706897      0.431035      0.679310     Biso  1.000000 Au
   Au5440     1.0     0.734483      0.403448      0.679310     Biso  1.000000 Au
   Au5441     1.0     0.734483      0.431035      0.706897     Biso  1.000000 Au
   Au5442     1.0     0.762070      0.403448      0.706897     Biso  1.000000 Au
   Au5443     1.0     0.762070      0.431035      0.679310     Biso  1.000000 Au
   Au5444     1.0     0.789655      0.403448      0.679310     Biso  1.000000 Au
   Au5445     1.0     0.789655      0.431035      0.706897     Biso  1.000000 Au
   Au5446     1.0     0.817242      0.403448      0.706897     Biso  1.000000 Au
   Au5447     1.0     0.817242      0.431035      0.679310     Biso  1.000000 Au
   Au5448     1.0     0.844828      0.403448      0.679310     Biso  1.000000 Au
   Au5449     1.0     0.155171      0.458620      0.706897     Biso  1.000000 Au
   Au5450     1.0     0.155171      0.486207      0.679310     Biso  1.000000 Au
   Au5451     1.0     0.182758      0.458620      0.679310     Biso  1.000000 Au
   Au5452     1.0     0.182758      0.486207      0.706897     Biso  1.000000 Au
   Au5453     1.0     0.210345      0.458620      0.706897     Biso  1.000000 Au
   Au5454     1.0     0.210345      0.486207      0.679310     Biso  1.000000 Au
   Au5455     1.0     0.237930      0.458620      0.679310     Biso  1.000000 Au
   Au5456     1.0     0.237930      0.486207      0.706897     Biso  1.000000 Au
   Au5457     1.0     0.265517      0.458620      0.706897     Biso  1.000000 Au
   Au5458     1.0     0.265517      0.486207      0.679310     Biso  1.000000 Au
   Au5459     1.0     0.293103      0.458620      0.679310     Biso  1.000000 Au
   Au5460     1.0     0.293103      0.486207      0.706897     Biso  1.000000 Au
   Au5461     1.0     0.320690      0.458620      0.706897     Biso  1.000000 Au
   Au5462     1.0     0.320690      0.486207      0.679310     Biso  1.000000 Au
   Au5463     1.0     0.348275      0.458620      0.679310     Biso  1.000000 Au
   Au5464     1.0     0.348275      0.486207      0.706897     Biso  1.000000 Au
   Au5465     1.0     0.375862      0.458620      0.706897     Biso  1.000000 Au
   Au5466     1.0     0.375862      0.486207      0.679310     Biso  1.000000 Au
   Au5467     1.0     0.403448      0.458620      0.679310     Biso  1.000000 Au
   Au5468     1.0     0.403448      0.486207      0.706897     Biso  1.000000 Au
   Au5469     1.0     0.431035      0.458620      0.706897     Biso  1.000000 Au
   Au5470     1.0     0.431035      0.486207      0.679310     Biso  1.000000 Au
   Au5471     1.0     0.458620      0.458620      0.679310     Biso  1.000000 Au
   Au5472     1.0     0.458620      0.486207      0.706897     Biso  1.000000 Au
   Au5473     1.0     0.486207      0.458620      0.706897     Biso  1.000000 Au
   Au5474     1.0     0.486207      0.486207      0.679310     Biso  1.000000 Au
   Au5475     1.0     0.513793      0.458620      0.679310     Biso  1.000000 Au
   Au5476     1.0     0.513793      0.486207      0.706897     Biso  1.000000 Au
   Au5477     1.0     0.541380      0.458620      0.706897     Biso  1.000000 Au
   Au5478     1.0     0.541380      0.486207      0.679310     Biso  1.000000 Au
   Au5479     1.0     0.568965      0.458620      0.679310     Biso  1.000000 Au
   Au5480     1.0     0.568965      0.486207      0.706897     Biso  1.000000 Au
   Au5481     1.0     0.596551      0.458620      0.706897     Biso  1.000000 Au
   Au5482     1.0     0.596551      0.486207      0.679310     Biso  1.000000 Au
   Au5483     1.0     0.624138      0.458620      0.679310     Biso  1.000000 Au
   Au5484     1.0     0.624138      0.486207      0.706897     Biso  1.000000 Au
   Au5485     1.0     0.651725      0.458620      0.706897     Biso  1.000000 Au
   Au5486     1.0     0.651725      0.486207      0.679310     Biso  1.000000 Au
   Au5487     1.0     0.679310      0.458620      0.679310     Biso  1.000000 Au
   Au5488     1.0     0.679310      0.486207      0.706897     Biso  1.000000 Au
   Au5489     1.0     0.706897      0.458620      0.706897     Biso  1.000000 Au
   Au5490     1.0     0.706897      0.486207      0.679310     Biso  1.000000 Au
   Au5491     1.0     0.734483      0.458620      0.679310     Biso  1.000000 Au
   Au5492     1.0     0.734483      0.486207      0.706897     Biso  1.000000 Au
   Au5493     1.0     0.762070      0.458620      0.706897     Biso  1.000000 Au
   Au5494     1.0     0.762070      0.486207      0.679310     Biso  1.000000 Au
   Au5495     1.0     0.789655      0.458620      0.679310     Biso  1.000000 Au
   Au5496     1.0     0.789655      0.486207      0.706897     Biso  1.000000 Au
   Au5497     1.0     0.817242      0.458620      0.706897     Biso  1.000000 Au
   Au5498     1.0     0.817242      0.486207      0.679310     Biso  1.000000 Au
   Au5499     1.0     0.844828      0.458620      0.679310     Biso  1.000000 Au
   Au5500     1.0     0.844828      0.486207      0.706897     Biso  1.000000 Au
   Au5501     1.0     0.155171      0.513793      0.706897     Biso  1.000000 Au
   Au5502     1.0     0.155171      0.541380      0.679310     Biso  1.000000 Au
   Au5503     1.0     0.182758      0.513793      0.679310     Biso  1.000000 Au
   Au5504     1.0     0.182758      0.541380      0.706897     Biso  1.000000 Au
   Au5505     1.0     0.210345      0.513793      0.706897     Biso  1.000000 Au
   Au5506     1.0     0.210345      0.541380      0.679310     Biso  1.000000 Au
   Au5507     1.0     0.237930      0.513793      0.679310     Biso  1.000000 Au
   Au5508     1.0     0.237930      0.541380      0.706897     Biso  1.000000 Au
   Au5509     1.0     0.265517      0.513793      0.706897     Biso  1.000000 Au
   Au5510     1.0     0.265517      0.541380      0.679310     Biso  1.000000 Au
   Au5511     1.0     0.293103      0.513793      0.679310     Biso  1.000000 Au
   Au5512     1.0     0.293103      0.541380      0.706897     Biso  1.000000 Au
   Au5513     1.0     0.320690      0.513793      0.706897     Biso  1.000000 Au
   Au5514     1.0     0.320690      0.541380      0.679310     Biso  1.000000 Au
   Au5515     1.0     0.348275      0.513793      0.679310     Biso  1.000000 Au
   Au5516     1.0     0.348275      0.541380      0.706897     Biso  1.000000 Au
   Au5517     1.0     0.375862      0.513793      0.706897     Biso  1.000000 Au
   Au5518     1.0     0.375862      0.541380      0.679310     Biso  1.000000 Au
   Au5519     1.0     0.403448      0.513793      0.679310     Biso  1.000000 Au
   Au5520     1.0     0.403448      0.541380      0.706897     Biso  1.000000 Au
   Au5521     1.0     0.431035      0.513793      0.706897     Biso  1.000000 Au
   Au5522     1.0     0.431035      0.541380      0.679310     Biso  1.000000 Au
   Au5523     1.0     0.458620      0.513793      0.679310     Biso  1.000000 Au
   Au5524     1.0     0.458620      0.541380      0.706897     Biso  1.000000 Au
   Au5525     1.0     0.486207      0.513793      0.706897     Biso  1.000000 Au
   Au5526     1.0     0.486207      0.541380      0.679310     Biso  1.000000 Au
   Au5527     1.0     0.513793      0.513793      0.679310     Biso  1.000000 Au
   Au5528     1.0     0.513793      0.541380      0.706897     Biso  1.000000 Au
   Au5529     1.0     0.541380      0.513793      0.706897     Biso  1.000000 Au
   Au5530     1.0     0.541380      0.541380      0.679310     Biso  1.000000 Au
   Au5531     1.0     0.568965      0.513793      0.679310     Biso  1.000000 Au
   Au5532     1.0     0.568965      0.541380      0.706897     Biso  1.000000 Au
   Au5533     1.0     0.596551      0.513793      0.706897     Biso  1.000000 Au
   Au5534     1.0     0.596551      0.541380      0.679310     Biso  1.000000 Au
   Au5535     1.0     0.624138      0.513793      0.679310     Biso  1.000000 Au
   Au5536     1.0     0.624138      0.541380      0.706897     Biso  1.000000 Au
   Au5537     1.0     0.651725      0.513793      0.706897     Biso  1.000000 Au
   Au5538     1.0     0.651725      0.541380      0.679310     Biso  1.000000 Au
   Au5539     1.0     0.679310      0.513793      0.679310     Biso  1.000000 Au
   Au5540     1.0     0.679310      0.541380      0.706897     Biso  1.000000 Au
   Au5541     1.0     0.706897      0.513793      0.706897     Biso  1.000000 Au
   Au5542     1.0     0.706897      0.541380      0.679310     Biso  1.000000 Au
   Au5543     1.0     0.734483      0.513793      0.679310     Biso  1.000000 Au
   Au5544     1.0     0.734483      0.541380      0.706897     Biso  1.000000 Au
   Au5545     1.0     0.762070      0.513793      0.706897     Biso  1.000000 Au
   Au5546     1.0     0.762070      0.541380      0.679310     Biso  1.000000 Au
   Au5547     1.0     0.789655      0.513793      0.679310     Biso  1.000000 Au
   Au5548     1.0     0.789655      0.541380      0.706897     Biso  1.000000 Au
   Au5549     1.0     0.817242      0.513793      0.706897     Biso  1.000000 Au
   Au5550     1.0     0.817242      0.541380      0.679310     Biso  1.000000 Au
   Au5551     1.0     0.844828      0.513793      0.679310     Biso  1.000000 Au
   Au5552     1.0     0.844828      0.541380      0.706897     Biso  1.000000 Au
   Au5553     1.0     0.155171      0.596551      0.679310     Biso  1.000000 Au
   Au5554     1.0     0.182758      0.568965      0.679310     Biso  1.000000 Au
   Au5555     1.0     0.182758      0.596551      0.706897     Biso  1.000000 Au
   Au5556     1.0     0.210345      0.568965      0.706897     Biso  1.000000 Au
   Au5557     1.0     0.210345      0.596551      0.679310     Biso  1.000000 Au
   Au5558     1.0     0.237930      0.568965      0.679310     Biso  1.000000 Au
   Au5559     1.0     0.237930      0.596551      0.706897     Biso  1.000000 Au
   Au5560     1.0     0.265517      0.568965      0.706897     Biso  1.000000 Au
   Au5561     1.0     0.265517      0.596551      0.679310     Biso  1.000000 Au
   Au5562     1.0     0.293103      0.568965      0.679310     Biso  1.000000 Au
   Au5563     1.0     0.293103      0.596551      0.706897     Biso  1.000000 Au
   Au5564     1.0     0.320690      0.568965      0.706897     Biso  1.000000 Au
   Au5565     1.0     0.320690      0.596551      0.679310     Biso  1.000000 Au
   Au5566     1.0     0.348275      0.568965      0.679310     Biso  1.000000 Au
   Au5567     1.0     0.348275      0.596551      0.706897     Biso  1.000000 Au
   Au5568     1.0     0.375862      0.568965      0.706897     Biso  1.000000 Au
   Au5569     1.0     0.375862      0.596551      0.679310     Biso  1.000000 Au
   Au5570     1.0     0.403448      0.568965      0.679310     Biso  1.000000 Au
   Au5571     1.0     0.403448      0.596551      0.706897     Biso  1.000000 Au
   Au5572     1.0     0.431035      0.568965      0.706897     Biso  1.000000 Au
   Au5573     1.0     0.431035      0.596551      0.679310     Biso  1.000000 Au
   Au5574     1.0     0.458620      0.568965      0.679310     Biso  1.000000 Au
   Au5575     1.0     0.458620      0.596551      0.706897     Biso  1.000000 Au
   Au5576     1.0     0.486207      0.568965      0.706897     Biso  1.000000 Au
   Au5577     1.0     0.486207      0.596551      0.679310     Biso  1.000000 Au
   Au5578     1.0     0.513793      0.568965      0.679310     Biso  1.000000 Au
   Au5579     1.0     0.513793      0.596551      0.706897     Biso  1.000000 Au
   Au5580     1.0     0.541380      0.568965      0.706897     Biso  1.000000 Au
   Au5581     1.0     0.541380      0.596551      0.679310     Biso  1.000000 Au
   Au5582     1.0     0.568965      0.568965      0.679310     Biso  1.000000 Au
   Au5583     1.0     0.568965      0.596551      0.706897     Biso  1.000000 Au
   Au5584     1.0     0.596551      0.568965      0.706897     Biso  1.000000 Au
   Au5585     1.0     0.596551      0.596551      0.679310     Biso  1.000000 Au
   Au5586     1.0     0.624138      0.568965      0.679310     Biso  1.000000 Au
   Au5587     1.0     0.624138      0.596551      0.706897     Biso  1.000000 Au
   Au5588     1.0     0.651725      0.568965      0.706897     Biso  1.000000 Au
   Au5589     1.0     0.651725      0.596551      0.679310     Biso  1.000000 Au
   Au5590     1.0     0.679310      0.568965      0.679310     Biso  1.000000 Au
   Au5591     1.0     0.679310      0.596551      0.706897     Biso  1.000000 Au
   Au5592     1.0     0.706897      0.568965      0.706897     Biso  1.000000 Au
   Au5593     1.0     0.706897      0.596551      0.679310     Biso  1.000000 Au
   Au5594     1.0     0.734483      0.568965      0.679310     Biso  1.000000 Au
   Au5595     1.0     0.734483      0.596551      0.706897     Biso  1.000000 Au
   Au5596     1.0     0.762070      0.568965      0.706897     Biso  1.000000 Au
   Au5597     1.0     0.762070      0.596551      0.679310     Biso  1.000000 Au
   Au5598     1.0     0.789655      0.568965      0.679310     Biso  1.000000 Au
   Au5599     1.0     0.789655      0.596551      0.706897     Biso  1.000000 Au
   Au5600     1.0     0.817242      0.568965      0.706897     Biso  1.000000 Au
   Au5601     1.0     0.817242      0.596551      0.679310     Biso  1.000000 Au
   Au5602     1.0     0.844828      0.568965      0.679310     Biso  1.000000 Au
   Au5603     1.0     0.182758      0.624138      0.679310     Biso  1.000000 Au
   Au5604     1.0     0.210345      0.624138      0.706897     Biso  1.000000 Au
   Au5605     1.0     0.210345      0.651725      0.679310     Biso  1.000000 Au
   Au5606     1.0     0.237930      0.624138      0.679310     Biso  1.000000 Au
   Au5607     1.0     0.237930      0.651725      0.706897     Biso  1.000000 Au
   Au5608     1.0     0.265517      0.624138      0.706897     Biso  1.000000 Au
   Au5609     1.0     0.265517      0.651725      0.679310     Biso  1.000000 Au
   Au5610     1.0     0.293103      0.624138      0.679310     Biso  1.000000 Au
   Au5611     1.0     0.293103      0.651725      0.706897     Biso  1.000000 Au
   Au5612     1.0     0.320690      0.624138      0.706897     Biso  1.000000 Au
   Au5613     1.0     0.320690      0.651725      0.679310     Biso  1.000000 Au
   Au5614     1.0     0.348275      0.624138      0.679310     Biso  1.000000 Au
   Au5615     1.0     0.348275      0.651725      0.706897     Biso  1.000000 Au
   Au5616     1.0     0.375862      0.624138      0.706897     Biso  1.000000 Au
   Au5617     1.0     0.375862      0.651725      0.679310     Biso  1.000000 Au
   Au5618     1.0     0.403448      0.624138      0.679310     Biso  1.000000 Au
   Au5619     1.0     0.403448      0.651725      0.706897     Biso  1.000000 Au
   Au5620     1.0     0.431035      0.624138      0.706897     Biso  1.000000 Au
   Au5621     1.0     0.431035      0.651725      0.679310     Biso  1.000000 Au
   Au5622     1.0     0.458620      0.624138      0.679310     Biso  1.000000 Au
   Au5623     1.0     0.458620      0.651725      0.706897     Biso  1.000000 Au
   Au5624     1.0     0.486207      0.624138      0.706897     Biso  1.000000 Au
   Au5625     1.0     0.486207      0.651725      0.679310     Biso  1.000000 Au
   Au5626     1.0     0.513793      0.624138      0.679310     Biso  1.000000 Au
   Au5627     1.0     0.513793      0.651725      0.706897     Biso  1.000000 Au
   Au5628     1.0     0.541380      0.624138      0.706897     Biso  1.000000 Au
   Au5629     1.0     0.541380      0.651725      0.679310     Biso  1.000000 Au
   Au5630     1.0     0.568965      0.624138      0.679310     Biso  1.000000 Au
   Au5631     1.0     0.568965      0.651725      0.706897     Biso  1.000000 Au
   Au5632     1.0     0.596551      0.624138      0.706897     Biso  1.000000 Au
   Au5633     1.0     0.596551      0.651725      0.679310     Biso  1.000000 Au
   Au5634     1.0     0.624138      0.624138      0.679310     Biso  1.000000 Au
   Au5635     1.0     0.624138      0.651725      0.706897     Biso  1.000000 Au
   Au5636     1.0     0.651725      0.624138      0.706897     Biso  1.000000 Au
   Au5637     1.0     0.651725      0.651725      0.679310     Biso  1.000000 Au
   Au5638     1.0     0.679310      0.624138      0.679310     Biso  1.000000 Au
   Au5639     1.0     0.679310      0.651725      0.706897     Biso  1.000000 Au
   Au5640     1.0     0.706897      0.624138      0.706897     Biso  1.000000 Au
   Au5641     1.0     0.706897      0.651725      0.679310     Biso  1.000000 Au
   Au5642     1.0     0.734483      0.624138      0.679310     Biso  1.000000 Au
   Au5643     1.0     0.734483      0.651725      0.706897     Biso  1.000000 Au
   Au5644     1.0     0.762070      0.624138      0.706897     Biso  1.000000 Au
   Au5645     1.0     0.762070      0.651725      0.679310     Biso  1.000000 Au
   Au5646     1.0     0.789655      0.624138      0.679310     Biso  1.000000 Au
   Au5647     1.0     0.789655      0.651725      0.706897     Biso  1.000000 Au
   Au5648     1.0     0.817242      0.624138      0.706897     Biso  1.000000 Au
   Au5649     1.0     0.817242      0.651725      0.679310     Biso  1.000000 Au
   Au5650     1.0     0.210345      0.679310      0.706897     Biso  1.000000 Au
   Au5651     1.0     0.210345      0.706897      0.679310     Biso  1.000000 Au
   Au5652     1.0     0.237930      0.679310      0.679310     Biso  1.000000 Au
   Au5653     1.0     0.237930      0.706897      0.706897     Biso  1.000000 Au
   Au5654     1.0     0.265517      0.679310      0.706897     Biso  1.000000 Au
   Au5655     1.0     0.265517      0.706897      0.679310     Biso  1.000000 Au
   Au5656     1.0     0.293103      0.679310      0.679310     Biso  1.000000 Au
   Au5657     1.0     0.293103      0.706897      0.706897     Biso  1.000000 Au
   Au5658     1.0     0.320690      0.679310      0.706897     Biso  1.000000 Au
   Au5659     1.0     0.320690      0.706897      0.679310     Biso  1.000000 Au
   Au5660     1.0     0.348275      0.679310      0.679310     Biso  1.000000 Au
   Au5661     1.0     0.348275      0.706897      0.706897     Biso  1.000000 Au
   Au5662     1.0     0.375862      0.679310      0.706897     Biso  1.000000 Au
   Au5663     1.0     0.375862      0.706897      0.679310     Biso  1.000000 Au
   Au5664     1.0     0.403448      0.679310      0.679310     Biso  1.000000 Au
   Au5665     1.0     0.403448      0.706897      0.706897     Biso  1.000000 Au
   Au5666     1.0     0.431035      0.679310      0.706897     Biso  1.000000 Au
   Au5667     1.0     0.431035      0.706897      0.679310     Biso  1.000000 Au
   Au5668     1.0     0.458620      0.679310      0.679310     Biso  1.000000 Au
   Au5669     1.0     0.458620      0.706897      0.706897     Biso  1.000000 Au
   Au5670     1.0     0.486207      0.679310      0.706897     Biso  1.000000 Au
   Au5671     1.0     0.486207      0.706897      0.679310     Biso  1.000000 Au
   Au5672     1.0     0.513793      0.679310      0.679310     Biso  1.000000 Au
   Au5673     1.0     0.513793      0.706897      0.706897     Biso  1.000000 Au
   Au5674     1.0     0.541380      0.679310      0.706897     Biso  1.000000 Au
   Au5675     1.0     0.541380      0.706897      0.679310     Biso  1.000000 Au
   Au5676     1.0     0.568965      0.679310      0.679310     Biso  1.000000 Au
   Au5677     1.0     0.568965      0.706897      0.706897     Biso  1.000000 Au
   Au5678     1.0     0.596551      0.679310      0.706897     Biso  1.000000 Au
   Au5679     1.0     0.596551      0.706897      0.679310     Biso  1.000000 Au
   Au5680     1.0     0.624138      0.679310      0.679310     Biso  1.000000 Au
   Au5681     1.0     0.624138      0.706897      0.706897     Biso  1.000000 Au
   Au5682     1.0     0.651725      0.679310      0.706897     Biso  1.000000 Au
   Au5683     1.0     0.651725      0.706897      0.679310     Biso  1.000000 Au
   Au5684     1.0     0.679310      0.679310      0.679310     Biso  1.000000 Au
   Au5685     1.0     0.679310      0.706897      0.706897     Biso  1.000000 Au
   Au5686     1.0     0.706897      0.679310      0.706897     Biso  1.000000 Au
   Au5687     1.0     0.706897      0.706897      0.679310     Biso  1.000000 Au
   Au5688     1.0     0.734483      0.679310      0.679310     Biso  1.000000 Au
   Au5689     1.0     0.734483      0.706897      0.706897     Biso  1.000000 Au
   Au5690     1.0     0.762070      0.679310      0.706897     Biso  1.000000 Au
   Au5691     1.0     0.762070      0.706897      0.679310     Biso  1.000000 Au
   Au5692     1.0     0.789655      0.679310      0.679310     Biso  1.000000 Au
   Au5693     1.0     0.237930      0.734483      0.679310     Biso  1.000000 Au
   Au5694     1.0     0.265517      0.734483      0.706897     Biso  1.000000 Au
   Au5695     1.0     0.265517      0.762070      0.679310     Biso  1.000000 Au
   Au5696     1.0     0.293103      0.734483      0.679310     Biso  1.000000 Au
   Au5697     1.0     0.293103      0.762070      0.706897     Biso  1.000000 Au
   Au5698     1.0     0.320690      0.734483      0.706897     Biso  1.000000 Au
   Au5699     1.0     0.320690      0.762070      0.679310     Biso  1.000000 Au
   Au5700     1.0     0.348275      0.734483      0.679310     Biso  1.000000 Au
   Au5701     1.0     0.348275      0.762070      0.706897     Biso  1.000000 Au
   Au5702     1.0     0.375862      0.734483      0.706897     Biso  1.000000 Au
   Au5703     1.0     0.375862      0.762070      0.679310     Biso  1.000000 Au
   Au5704     1.0     0.403448      0.734483      0.679310     Biso  1.000000 Au
   Au5705     1.0     0.403448      0.762070      0.706897     Biso  1.000000 Au
   Au5706     1.0     0.431035      0.734483      0.706897     Biso  1.000000 Au
   Au5707     1.0     0.431035      0.762070      0.679310     Biso  1.000000 Au
   Au5708     1.0     0.458620      0.734483      0.679310     Biso  1.000000 Au
   Au5709     1.0     0.458620      0.762070      0.706897     Biso  1.000000 Au
   Au5710     1.0     0.486207      0.734483      0.706897     Biso  1.000000 Au
   Au5711     1.0     0.486207      0.762070      0.679310     Biso  1.000000 Au
   Au5712     1.0     0.513793      0.734483      0.679310     Biso  1.000000 Au
   Au5713     1.0     0.513793      0.762070      0.706897     Biso  1.000000 Au
   Au5714     1.0     0.541380      0.734483      0.706897     Biso  1.000000 Au
   Au5715     1.0     0.541380      0.762070      0.679310     Biso  1.000000 Au
   Au5716     1.0     0.568965      0.734483      0.679310     Biso  1.000000 Au
   Au5717     1.0     0.568965      0.762070      0.706897     Biso  1.000000 Au
   Au5718     1.0     0.596551      0.734483      0.706897     Biso  1.000000 Au
   Au5719     1.0     0.596551      0.762070      0.679310     Biso  1.000000 Au
   Au5720     1.0     0.624138      0.734483      0.679310     Biso  1.000000 Au
   Au5721     1.0     0.624138      0.762070      0.706897     Biso  1.000000 Au
   Au5722     1.0     0.651725      0.734483      0.706897     Biso  1.000000 Au
   Au5723     1.0     0.651725      0.762070      0.679310     Biso  1.000000 Au
   Au5724     1.0     0.679310      0.734483      0.679310     Biso  1.000000 Au
   Au5725     1.0     0.679310      0.762070      0.706897     Biso  1.000000 Au
   Au5726     1.0     0.706897      0.734483      0.706897     Biso  1.000000 Au
   Au5727     1.0     0.706897      0.762070      0.679310     Biso  1.000000 Au
   Au5728     1.0     0.734483      0.734483      0.679310     Biso  1.000000 Au
   Au5729     1.0     0.293103      0.789655      0.679310     Biso  1.000000 Au
   Au5730     1.0     0.320690      0.789655      0.706897     Biso  1.000000 Au
   Au5731     1.0     0.348275      0.789655      0.679310     Biso  1.000000 Au
   Au5732     1.0     0.375862      0.789655      0.706897     Biso  1.000000 Au
   Au5733     1.0     0.375862      0.817242      0.679310     Biso  1.000000 Au
   Au5734     1.0     0.403448      0.789655      0.679310     Biso  1.000000 Au
   Au5735     1.0     0.403448      0.817242      0.706897     Biso  1.000000 Au
   Au5736     1.0     0.431035      0.789655      0.706897     Biso  1.000000 Au
   Au5737     1.0     0.431035      0.817242      0.679310     Biso  1.000000 Au
   Au5738     1.0     0.458620      0.789655      0.679310     Biso  1.000000 Au
   Au5739     1.0     0.458620      0.817242      0.706897     Biso  1.000000 Au
   Au5740     1.0     0.486207      0.789655      0.706897     Biso  1.000000 Au
   Au5741     1.0     0.486207      0.817242      0.679310     Biso  1.000000 Au
   Au5742     1.0     0.513793      0.789655      0.679310     Biso  1.000000 Au
   Au5743     1.0     0.513793      0.817242      0.706897     Biso  1.000000 Au
   Au5744     1.0     0.541380      0.789655      0.706897     Biso  1.000000 Au
   Au5745     1.0     0.541380      0.817242      0.679310     Biso  1.000000 Au
   Au5746     1.0     0.568965      0.789655      0.679310     Biso  1.000000 Au
   Au5747     1.0     0.568965      0.817242      0.706897     Biso  1.000000 Au
   Au5748     1.0     0.596551      0.789655      0.706897     Biso  1.000000 Au
   Au5749     1.0     0.596551      0.817242      0.679310     Biso  1.000000 Au
   Au5750     1.0     0.624138      0.789655      0.679310     Biso  1.000000 Au
   Au5751     1.0     0.624138      0.817242      0.706897     Biso  1.000000 Au
   Au5752     1.0     0.651725      0.789655      0.706897     Biso  1.000000 Au
   Au5753     1.0     0.651725      0.817242      0.679310     Biso  1.000000 Au
   Au5754     1.0     0.679310      0.789655      0.679310     Biso  1.000000 Au
   Au5755     1.0     0.403448      0.844828      0.679310     Biso  1.000000 Au
   Au5756     1.0     0.458620      0.844828      0.679310     Biso  1.000000 Au
   Au5757     1.0     0.486207      0.844828      0.706897     Biso  1.000000 Au
   Au5758     1.0     0.513793      0.844828      0.679310     Biso  1.000000 Au
   Au5759     1.0     0.541380      0.844828      0.706897     Biso  1.000000 Au
   Au5760     1.0     0.568965      0.844828      0.679310     Biso  1.000000 Au
   Au5761     1.0     0.375862      0.210345      0.734483     Biso  1.000000 Au
   Au5762     1.0     0.403448      0.210345      0.762070     Biso  1.000000 Au
   Au5763     1.0     0.431035      0.210345      0.734483     Biso  1.000000 Au
   Au5764     1.0     0.458620      0.182758      0.734483     Biso  1.000000 Au
   Au5765     1.0     0.458620      0.210345      0.762070     Biso  1.000000 Au
   Au5766     1.0     0.486207      0.210345      0.734483     Biso  1.000000 Au
   Au5767     1.0     0.513793      0.182758      0.734483     Biso  1.000000 Au
   Au5768     1.0     0.513793      0.210345      0.762070     Biso  1.000000 Au
   Au5769     1.0     0.541380      0.210345      0.734483     Biso  1.000000 Au
   Au5770     1.0     0.568965      0.182758      0.734483     Biso  1.000000 Au
   Au5771     1.0     0.568965      0.210345      0.762070     Biso  1.000000 Au
   Au5772     1.0     0.596551      0.210345      0.734483     Biso  1.000000 Au
   Au5773     1.0     0.651725      0.210345      0.734483     Biso  1.000000 Au
   Au5774     1.0     0.320690      0.265517      0.734483     Biso  1.000000 Au
   Au5775     1.0     0.348275      0.237930      0.734483     Biso  1.000000 Au
   Au5776     1.0     0.348275      0.265517      0.762070     Biso  1.000000 Au
   Au5777     1.0     0.375862      0.237930      0.762070     Biso  1.000000 Au
   Au5778     1.0     0.375862      0.265517      0.734483     Biso  1.000000 Au
   Au5779     1.0     0.403448      0.237930      0.734483     Biso  1.000000 Au
   Au5780     1.0     0.403448      0.265517      0.762070     Biso  1.000000 Au
   Au5781     1.0     0.431035      0.237930      0.762070     Biso  1.000000 Au
   Au5782     1.0     0.431035      0.265517      0.734483     Biso  1.000000 Au
   Au5783     1.0     0.458620      0.237930      0.734483     Biso  1.000000 Au
   Au5784     1.0     0.458620      0.265517      0.762070     Biso  1.000000 Au
   Au5785     1.0     0.486207      0.237930      0.762070     Biso  1.000000 Au
   Au5786     1.0     0.486207      0.265517      0.734483     Biso  1.000000 Au
   Au5787     1.0     0.513793      0.237930      0.734483     Biso  1.000000 Au
   Au5788     1.0     0.513793      0.265517      0.762070     Biso  1.000000 Au
   Au5789     1.0     0.541380      0.237930      0.762070     Biso  1.000000 Au
   Au5790     1.0     0.541380      0.265517      0.734483     Biso  1.000000 Au
   Au5791     1.0     0.568965      0.237930      0.734483     Biso  1.000000 Au
   Au5792     1.0     0.568965      0.265517      0.762070     Biso  1.000000 Au
   Au5793     1.0     0.596551      0.237930      0.762070     Biso  1.000000 Au
   Au5794     1.0     0.596551      0.265517      0.734483     Biso  1.000000 Au
   Au5795     1.0     0.624138      0.237930      0.734483     Biso  1.000000 Au
   Au5796     1.0     0.624138      0.265517      0.762070     Biso  1.000000 Au
   Au5797     1.0     0.651725      0.237930      0.762070     Biso  1.000000 Au
   Au5798     1.0     0.651725      0.265517      0.734483     Biso  1.000000 Au
   Au5799     1.0     0.679310      0.237930      0.734483     Biso  1.000000 Au
   Au5800     1.0     0.679310      0.265517      0.762070     Biso  1.000000 Au
   Au5801     1.0     0.706897      0.265517      0.734483     Biso  1.000000 Au
   Au5802     1.0     0.265517      0.320690      0.734483     Biso  1.000000 Au
   Au5803     1.0     0.293103      0.293103      0.734483     Biso  1.000000 Au
   Au5804     1.0     0.293103      0.320690      0.762070     Biso  1.000000 Au
   Au5805     1.0     0.320690      0.293103      0.762070     Biso  1.000000 Au
   Au5806     1.0     0.320690      0.320690      0.734483     Biso  1.000000 Au
   Au5807     1.0     0.348275      0.293103      0.734483     Biso  1.000000 Au
   Au5808     1.0     0.348275      0.320690      0.762070     Biso  1.000000 Au
   Au5809     1.0     0.375862      0.293103      0.762070     Biso  1.000000 Au
   Au5810     1.0     0.375862      0.320690      0.734483     Biso  1.000000 Au
   Au5811     1.0     0.403448      0.293103      0.734483     Biso  1.000000 Au
   Au5812     1.0     0.403448      0.320690      0.762070     Biso  1.000000 Au
   Au5813     1.0     0.431035      0.293103      0.762070     Biso  1.000000 Au
   Au5814     1.0     0.431035      0.320690      0.734483     Biso  1.000000 Au
   Au5815     1.0     0.458620      0.293103      0.734483     Biso  1.000000 Au
   Au5816     1.0     0.458620      0.320690      0.762070     Biso  1.000000 Au
   Au5817     1.0     0.486207      0.293103      0.762070     Biso  1.000000 Au
   Au5818     1.0     0.486207      0.320690      0.734483     Biso  1.000000 Au
   Au5819     1.0     0.513793      0.293103      0.734483     Biso  1.000000 Au
   Au5820     1.0     0.513793      0.320690      0.762070     Biso  1.000000 Au
   Au5821     1.0     0.541380      0.293103      0.762070     Biso  1.000000 Au
   Au5822     1.0     0.541380      0.320690      0.734483     Biso  1.000000 Au
   Au5823     1.0     0.568965      0.293103      0.734483     Biso  1.000000 Au
   Au5824     1.0     0.568965      0.320690      0.762070     Biso  1.000000 Au
   Au5825     1.0     0.596551      0.293103      0.762070     Biso  1.000000 Au
   Au5826     1.0     0.596551      0.320690      0.734483     Biso  1.000000 Au
   Au5827     1.0     0.624138      0.293103      0.734483     Biso  1.000000 Au
   Au5828     1.0     0.624138      0.320690      0.762070     Biso  1.000000 Au
   Au5829     1.0     0.651725      0.293103      0.762070     Biso  1.000000 Au
   Au5830     1.0     0.651725      0.320690      0.734483     Biso  1.000000 Au
   Au5831     1.0     0.679310      0.293103      0.734483     Biso  1.000000 Au
   Au5832     1.0     0.679310      0.320690      0.762070     Biso  1.000000 Au
   Au5833     1.0     0.706897      0.293103      0.762070     Biso  1.000000 Au
   Au5834     1.0     0.706897      0.320690      0.734483     Biso  1.000000 Au
   Au5835     1.0     0.734483      0.293103      0.734483     Biso  1.000000 Au
   Au5836     1.0     0.734483      0.320690      0.762070     Biso  1.000000 Au
   Au5837     1.0     0.762070      0.320690      0.734483     Biso  1.000000 Au
   Au5838     1.0     0.210345      0.375862      0.734483     Biso  1.000000 Au
   Au5839     1.0     0.237930      0.348275      0.734483     Biso  1.000000 Au
   Au5840     1.0     0.237930      0.375862      0.762070     Biso  1.000000 Au
   Au5841     1.0     0.265517      0.348275      0.762070     Biso  1.000000 Au
   Au5842     1.0     0.265517      0.375862      0.734483     Biso  1.000000 Au
   Au5843     1.0     0.293103      0.348275      0.734483     Biso  1.000000 Au
   Au5844     1.0     0.293103      0.375862      0.762070     Biso  1.000000 Au
   Au5845     1.0     0.320690      0.348275      0.762070     Biso  1.000000 Au
   Au5846     1.0     0.320690      0.375862      0.734483     Biso  1.000000 Au
   Au5847     1.0     0.348275      0.348275      0.734483     Biso  1.000000 Au
   Au5848     1.0     0.348275      0.375862      0.762070     Biso  1.000000 Au
   Au5849     1.0     0.375862      0.348275      0.762070     Biso  1.000000 Au
   Au5850     1.0     0.375862      0.375862      0.734483     Biso  1.000000 Au
   Au5851     1.0     0.403448      0.348275      0.734483     Biso  1.000000 Au
   Au5852     1.0     0.403448      0.375862      0.762070     Biso  1.000000 Au
   Au5853     1.0     0.431035      0.348275      0.762070     Biso  1.000000 Au
   Au5854     1.0     0.431035      0.375862      0.734483     Biso  1.000000 Au
   Au5855     1.0     0.458620      0.348275      0.734483     Biso  1.000000 Au
   Au5856     1.0     0.458620      0.375862      0.762070     Biso  1.000000 Au
   Au5857     1.0     0.486207      0.348275      0.762070     Biso  1.000000 Au
   Au5858     1.0     0.486207      0.375862      0.734483     Biso  1.000000 Au
   Au5859     1.0     0.513793      0.348275      0.734483     Biso  1.000000 Au
   Au5860     1.0     0.513793      0.375862      0.762070     Biso  1.000000 Au
   Au5861     1.0     0.541380      0.348275      0.762070     Biso  1.000000 Au
   Au5862     1.0     0.541380      0.375862      0.734483     Biso  1.000000 Au
   Au5863     1.0     0.568965      0.348275      0.734483     Biso  1.000000 Au
   Au5864     1.0     0.568965      0.375862      0.762070     Biso  1.000000 Au
   Au5865     1.0     0.596551      0.348275      0.762070     Biso  1.000000 Au
   Au5866     1.0     0.596551      0.375862      0.734483     Biso  1.000000 Au
   Au5867     1.0     0.624138      0.348275      0.734483     Biso  1.000000 Au
   Au5868     1.0     0.624138      0.375862      0.762070     Biso  1.000000 Au
   Au5869     1.0     0.651725      0.348275      0.762070     Biso  1.000000 Au
   Au5870     1.0     0.651725      0.375862      0.734483     Biso  1.000000 Au
   Au5871     1.0     0.679310      0.348275      0.734483     Biso  1.000000 Au
   Au5872     1.0     0.679310      0.375862      0.762070     Biso  1.000000 Au
   Au5873     1.0     0.706897      0.348275      0.762070     Biso  1.000000 Au
   Au5874     1.0     0.706897      0.375862      0.734483     Biso  1.000000 Au
   Au5875     1.0     0.734483      0.348275      0.734483     Biso  1.000000 Au
   Au5876     1.0     0.734483      0.375862      0.762070     Biso  1.000000 Au
   Au5877     1.0     0.762070      0.348275      0.762070     Biso  1.000000 Au
   Au5878     1.0     0.762070      0.375862      0.734483     Biso  1.000000 Au
   Au5879     1.0     0.789655      0.348275      0.734483     Biso  1.000000 Au
   Au5880     1.0     0.210345      0.403448      0.762070     Biso  1.000000 Au
   Au5881     1.0     0.210345      0.431035      0.734483     Biso  1.000000 Au
   Au5882     1.0     0.237930      0.403448      0.734483     Biso  1.000000 Au
   Au5883     1.0     0.237930      0.431035      0.762070     Biso  1.000000 Au
   Au5884     1.0     0.265517      0.403448      0.762070     Biso  1.000000 Au
   Au5885     1.0     0.265517      0.431035      0.734483     Biso  1.000000 Au
   Au5886     1.0     0.293103      0.403448      0.734483     Biso  1.000000 Au
   Au5887     1.0     0.293103      0.431035      0.762070     Biso  1.000000 Au
   Au5888     1.0     0.320690      0.403448      0.762070     Biso  1.000000 Au
   Au5889     1.0     0.320690      0.431035      0.734483     Biso  1.000000 Au
   Au5890     1.0     0.348275      0.403448      0.734483     Biso  1.000000 Au
   Au5891     1.0     0.348275      0.431035      0.762070     Biso  1.000000 Au
   Au5892     1.0     0.375862      0.403448      0.762070     Biso  1.000000 Au
   Au5893     1.0     0.375862      0.431035      0.734483     Biso  1.000000 Au
   Au5894     1.0     0.403448      0.403448      0.734483     Biso  1.000000 Au
   Au5895     1.0     0.403448      0.431035      0.762070     Biso  1.000000 Au
   Au5896     1.0     0.431035      0.403448      0.762070     Biso  1.000000 Au
   Au5897     1.0     0.431035      0.431035      0.734483     Biso  1.000000 Au
   Au5898     1.0     0.458620      0.403448      0.734483     Biso  1.000000 Au
   Au5899     1.0     0.458620      0.431035      0.762070     Biso  1.000000 Au
   Au5900     1.0     0.486207      0.403448      0.762070     Biso  1.000000 Au
   Au5901     1.0     0.486207      0.431035      0.734483     Biso  1.000000 Au
   Au5902     1.0     0.513793      0.403448      0.734483     Biso  1.000000 Au
   Au5903     1.0     0.513793      0.431035      0.762070     Biso  1.000000 Au
   Au5904     1.0     0.541380      0.403448      0.762070     Biso  1.000000 Au
   Au5905     1.0     0.541380      0.431035      0.734483     Biso  1.000000 Au
   Au5906     1.0     0.568965      0.403448      0.734483     Biso  1.000000 Au
   Au5907     1.0     0.568965      0.431035      0.762070     Biso  1.000000 Au
   Au5908     1.0     0.596551      0.403448      0.762070     Biso  1.000000 Au
   Au5909     1.0     0.596551      0.431035      0.734483     Biso  1.000000 Au
   Au5910     1.0     0.624138      0.403448      0.734483     Biso  1.000000 Au
   Au5911     1.0     0.624138      0.431035      0.762070     Biso  1.000000 Au
   Au5912     1.0     0.651725      0.403448      0.762070     Biso  1.000000 Au
   Au5913     1.0     0.651725      0.431035      0.734483     Biso  1.000000 Au
   Au5914     1.0     0.679310      0.403448      0.734483     Biso  1.000000 Au
   Au5915     1.0     0.679310      0.431035      0.762070     Biso  1.000000 Au
   Au5916     1.0     0.706897      0.403448      0.762070     Biso  1.000000 Au
   Au5917     1.0     0.706897      0.431035      0.734483     Biso  1.000000 Au
   Au5918     1.0     0.734483      0.403448      0.734483     Biso  1.000000 Au
   Au5919     1.0     0.734483      0.431035      0.762070     Biso  1.000000 Au
   Au5920     1.0     0.762070      0.403448      0.762070     Biso  1.000000 Au
   Au5921     1.0     0.762070      0.431035      0.734483     Biso  1.000000 Au
   Au5922     1.0     0.789655      0.403448      0.734483     Biso  1.000000 Au
   Au5923     1.0     0.789655      0.431035      0.762070     Biso  1.000000 Au
   Au5924     1.0     0.817242      0.431035      0.734483     Biso  1.000000 Au
   Au5925     1.0     0.182758      0.458620      0.734483     Biso  1.000000 Au
   Au5926     1.0     0.210345      0.458620      0.762070     Biso  1.000000 Au
   Au5927     1.0     0.210345      0.486207      0.734483     Biso  1.000000 Au
   Au5928     1.0     0.237930      0.458620      0.734483     Biso  1.000000 Au
   Au5929     1.0     0.237930      0.486207      0.762070     Biso  1.000000 Au
   Au5930     1.0     0.265517      0.458620      0.762070     Biso  1.000000 Au
   Au5931     1.0     0.265517      0.486207      0.734483     Biso  1.000000 Au
   Au5932     1.0     0.293103      0.458620      0.734483     Biso  1.000000 Au
   Au5933     1.0     0.293103      0.486207      0.762070     Biso  1.000000 Au
   Au5934     1.0     0.320690      0.458620      0.762070     Biso  1.000000 Au
   Au5935     1.0     0.320690      0.486207      0.734483     Biso  1.000000 Au
   Au5936     1.0     0.348275      0.458620      0.734483     Biso  1.000000 Au
   Au5937     1.0     0.348275      0.486207      0.762070     Biso  1.000000 Au
   Au5938     1.0     0.375862      0.458620      0.762070     Biso  1.000000 Au
   Au5939     1.0     0.375862      0.486207      0.734483     Biso  1.000000 Au
   Au5940     1.0     0.403448      0.458620      0.734483     Biso  1.000000 Au
   Au5941     1.0     0.403448      0.486207      0.762070     Biso  1.000000 Au
   Au5942     1.0     0.431035      0.458620      0.762070     Biso  1.000000 Au
   Au5943     1.0     0.431035      0.486207      0.734483     Biso  1.000000 Au
   Au5944     1.0     0.458620      0.458620      0.734483     Biso  1.000000 Au
   Au5945     1.0     0.458620      0.486207      0.762070     Biso  1.000000 Au
   Au5946     1.0     0.486207      0.458620      0.762070     Biso  1.000000 Au
   Au5947     1.0     0.486207      0.486207      0.734483     Biso  1.000000 Au
   Au5948     1.0     0.513793      0.458620      0.734483     Biso  1.000000 Au
   Au5949     1.0     0.513793      0.486207      0.762070     Biso  1.000000 Au
   Au5950     1.0     0.541380      0.458620      0.762070     Biso  1.000000 Au
   Au5951     1.0     0.541380      0.486207      0.734483     Biso  1.000000 Au
   Au5952     1.0     0.568965      0.458620      0.734483     Biso  1.000000 Au
   Au5953     1.0     0.568965      0.486207      0.762070     Biso  1.000000 Au
   Au5954     1.0     0.596551      0.458620      0.762070     Biso  1.000000 Au
   Au5955     1.0     0.596551      0.486207      0.734483     Biso  1.000000 Au
   Au5956     1.0     0.624138      0.458620      0.734483     Biso  1.000000 Au
   Au5957     1.0     0.624138      0.486207      0.762070     Biso  1.000000 Au
   Au5958     1.0     0.651725      0.458620      0.762070     Biso  1.000000 Au
   Au5959     1.0     0.651725      0.486207      0.734483     Biso  1.000000 Au
   Au5960     1.0     0.679310      0.458620      0.734483     Biso  1.000000 Au
   Au5961     1.0     0.679310      0.486207      0.762070     Biso  1.000000 Au
   Au5962     1.0     0.706897      0.458620      0.762070     Biso  1.000000 Au
   Au5963     1.0     0.706897      0.486207      0.734483     Biso  1.000000 Au
   Au5964     1.0     0.734483      0.458620      0.734483     Biso  1.000000 Au
   Au5965     1.0     0.734483      0.486207      0.762070     Biso  1.000000 Au
   Au5966     1.0     0.762070      0.458620      0.762070     Biso  1.000000 Au
   Au5967     1.0     0.762070      0.486207      0.734483     Biso  1.000000 Au
   Au5968     1.0     0.789655      0.458620      0.734483     Biso  1.000000 Au
   Au5969     1.0     0.789655      0.486207      0.762070     Biso  1.000000 Au
   Au5970     1.0     0.817242      0.486207      0.734483     Biso  1.000000 Au
   Au5971     1.0     0.182758      0.513793      0.734483     Biso  1.000000 Au
   Au5972     1.0     0.210345      0.513793      0.762070     Biso  1.000000 Au
   Au5973     1.0     0.210345      0.541380      0.734483     Biso  1.000000 Au
   Au5974     1.0     0.237930      0.513793      0.734483     Biso  1.000000 Au
   Au5975     1.0     0.237930      0.541380      0.762070     Biso  1.000000 Au
   Au5976     1.0     0.265517      0.513793      0.762070     Biso  1.000000 Au
   Au5977     1.0     0.265517      0.541380      0.734483     Biso  1.000000 Au
   Au5978     1.0     0.293103      0.513793      0.734483     Biso  1.000000 Au
   Au5979     1.0     0.293103      0.541380      0.762070     Biso  1.000000 Au
   Au5980     1.0     0.320690      0.513793      0.762070     Biso  1.000000 Au
   Au5981     1.0     0.320690      0.541380      0.734483     Biso  1.000000 Au
   Au5982     1.0     0.348275      0.513793      0.734483     Biso  1.000000 Au
   Au5983     1.0     0.348275      0.541380      0.762070     Biso  1.000000 Au
   Au5984     1.0     0.375862      0.513793      0.762070     Biso  1.000000 Au
   Au5985     1.0     0.375862      0.541380      0.734483     Biso  1.000000 Au
   Au5986     1.0     0.403448      0.513793      0.734483     Biso  1.000000 Au
   Au5987     1.0     0.403448      0.541380      0.762070     Biso  1.000000 Au
   Au5988     1.0     0.431035      0.513793      0.762070     Biso  1.000000 Au
   Au5989     1.0     0.431035      0.541380      0.734483     Biso  1.000000 Au
   Au5990     1.0     0.458620      0.513793      0.734483     Biso  1.000000 Au
   Au5991     1.0     0.458620      0.541380      0.762070     Biso  1.000000 Au
   Au5992     1.0     0.486207      0.513793      0.762070     Biso  1.000000 Au
   Au5993     1.0     0.486207      0.541380      0.734483     Biso  1.000000 Au
   Au5994     1.0     0.513793      0.513793      0.734483     Biso  1.000000 Au
   Au5995     1.0     0.513793      0.541380      0.762070     Biso  1.000000 Au
   Au5996     1.0     0.541380      0.513793      0.762070     Biso  1.000000 Au
   Au5997     1.0     0.541380      0.541380      0.734483     Biso  1.000000 Au
   Au5998     1.0     0.568965      0.513793      0.734483     Biso  1.000000 Au
   Au5999     1.0     0.568965      0.541380      0.762070     Biso  1.000000 Au
   Au6000     1.0     0.596551      0.513793      0.762070     Biso  1.000000 Au
   Au6001     1.0     0.596551      0.541380      0.734483     Biso  1.000000 Au
   Au6002     1.0     0.624138      0.513793      0.734483     Biso  1.000000 Au
   Au6003     1.0     0.624138      0.541380      0.762070     Biso  1.000000 Au
   Au6004     1.0     0.651725      0.513793      0.762070     Biso  1.000000 Au
   Au6005     1.0     0.651725      0.541380      0.734483     Biso  1.000000 Au
   Au6006     1.0     0.679310      0.513793      0.734483     Biso  1.000000 Au
   Au6007     1.0     0.679310      0.541380      0.762070     Biso  1.000000 Au
   Au6008     1.0     0.706897      0.513793      0.762070     Biso  1.000000 Au
   Au6009     1.0     0.706897      0.541380      0.734483     Biso  1.000000 Au
   Au6010     1.0     0.734483      0.513793      0.734483     Biso  1.000000 Au
   Au6011     1.0     0.734483      0.541380      0.762070     Biso  1.000000 Au
   Au6012     1.0     0.762070      0.513793      0.762070     Biso  1.000000 Au
   Au6013     1.0     0.762070      0.541380      0.734483     Biso  1.000000 Au
   Au6014     1.0     0.789655      0.513793      0.734483     Biso  1.000000 Au
   Au6015     1.0     0.789655      0.541380      0.762070     Biso  1.000000 Au
   Au6016     1.0     0.817242      0.541380      0.734483     Biso  1.000000 Au
   Au6017     1.0     0.182758      0.568965      0.734483     Biso  1.000000 Au
   Au6018     1.0     0.210345      0.568965      0.762070     Biso  1.000000 Au
   Au6019     1.0     0.210345      0.596551      0.734483     Biso  1.000000 Au
   Au6020     1.0     0.237930      0.568965      0.734483     Biso  1.000000 Au
   Au6021     1.0     0.237930      0.596551      0.762070     Biso  1.000000 Au
   Au6022     1.0     0.265517      0.568965      0.762070     Biso  1.000000 Au
   Au6023     1.0     0.265517      0.596551      0.734483     Biso  1.000000 Au
   Au6024     1.0     0.293103      0.568965      0.734483     Biso  1.000000 Au
   Au6025     1.0     0.293103      0.596551      0.762070     Biso  1.000000 Au
   Au6026     1.0     0.320690      0.568965      0.762070     Biso  1.000000 Au
   Au6027     1.0     0.320690      0.596551      0.734483     Biso  1.000000 Au
   Au6028     1.0     0.348275      0.568965      0.734483     Biso  1.000000 Au
   Au6029     1.0     0.348275      0.596551      0.762070     Biso  1.000000 Au
   Au6030     1.0     0.375862      0.568965      0.762070     Biso  1.000000 Au
   Au6031     1.0     0.375862      0.596551      0.734483     Biso  1.000000 Au
   Au6032     1.0     0.403448      0.568965      0.734483     Biso  1.000000 Au
   Au6033     1.0     0.403448      0.596551      0.762070     Biso  1.000000 Au
   Au6034     1.0     0.431035      0.568965      0.762070     Biso  1.000000 Au
   Au6035     1.0     0.431035      0.596551      0.734483     Biso  1.000000 Au
   Au6036     1.0     0.458620      0.568965      0.734483     Biso  1.000000 Au
   Au6037     1.0     0.458620      0.596551      0.762070     Biso  1.000000 Au
   Au6038     1.0     0.486207      0.568965      0.762070     Biso  1.000000 Au
   Au6039     1.0     0.486207      0.596551      0.734483     Biso  1.000000 Au
   Au6040     1.0     0.513793      0.568965      0.734483     Biso  1.000000 Au
   Au6041     1.0     0.513793      0.596551      0.762070     Biso  1.000000 Au
   Au6042     1.0     0.541380      0.568965      0.762070     Biso  1.000000 Au
   Au6043     1.0     0.541380      0.596551      0.734483     Biso  1.000000 Au
   Au6044     1.0     0.568965      0.568965      0.734483     Biso  1.000000 Au
   Au6045     1.0     0.568965      0.596551      0.762070     Biso  1.000000 Au
   Au6046     1.0     0.596551      0.568965      0.762070     Biso  1.000000 Au
   Au6047     1.0     0.596551      0.596551      0.734483     Biso  1.000000 Au
   Au6048     1.0     0.624138      0.568965      0.734483     Biso  1.000000 Au
   Au6049     1.0     0.624138      0.596551      0.762070     Biso  1.000000 Au
   Au6050     1.0     0.651725      0.568965      0.762070     Biso  1.000000 Au
   Au6051     1.0     0.651725      0.596551      0.734483     Biso  1.000000 Au
   Au6052     1.0     0.679310      0.568965      0.734483     Biso  1.000000 Au
   Au6053     1.0     0.679310      0.596551      0.762070     Biso  1.000000 Au
   Au6054     1.0     0.706897      0.568965      0.762070     Biso  1.000000 Au
   Au6055     1.0     0.706897      0.596551      0.734483     Biso  1.000000 Au
   Au6056     1.0     0.734483      0.568965      0.734483     Biso  1.000000 Au
   Au6057     1.0     0.734483      0.596551      0.762070     Biso  1.000000 Au
   Au6058     1.0     0.762070      0.568965      0.762070     Biso  1.000000 Au
   Au6059     1.0     0.762070      0.596551      0.734483     Biso  1.000000 Au
   Au6060     1.0     0.789655      0.568965      0.734483     Biso  1.000000 Au
   Au6061     1.0     0.789655      0.596551      0.762070     Biso  1.000000 Au
   Au6062     1.0     0.210345      0.651725      0.734483     Biso  1.000000 Au
   Au6063     1.0     0.237930      0.624138      0.734483     Biso  1.000000 Au
   Au6064     1.0     0.237930      0.651725      0.762070     Biso  1.000000 Au
   Au6065     1.0     0.265517      0.624138      0.762070     Biso  1.000000 Au
   Au6066     1.0     0.265517      0.651725      0.734483     Biso  1.000000 Au
   Au6067     1.0     0.293103      0.624138      0.734483     Biso  1.000000 Au
   Au6068     1.0     0.293103      0.651725      0.762070     Biso  1.000000 Au
   Au6069     1.0     0.320690      0.624138      0.762070     Biso  1.000000 Au
   Au6070     1.0     0.320690      0.651725      0.734483     Biso  1.000000 Au
   Au6071     1.0     0.348275      0.624138      0.734483     Biso  1.000000 Au
   Au6072     1.0     0.348275      0.651725      0.762070     Biso  1.000000 Au
   Au6073     1.0     0.375862      0.624138      0.762070     Biso  1.000000 Au
   Au6074     1.0     0.375862      0.651725      0.734483     Biso  1.000000 Au
   Au6075     1.0     0.403448      0.624138      0.734483     Biso  1.000000 Au
   Au6076     1.0     0.403448      0.651725      0.762070     Biso  1.000000 Au
   Au6077     1.0     0.431035      0.624138      0.762070     Biso  1.000000 Au
   Au6078     1.0     0.431035      0.651725      0.734483     Biso  1.000000 Au
   Au6079     1.0     0.458620      0.624138      0.734483     Biso  1.000000 Au
   Au6080     1.0     0.458620      0.651725      0.762070     Biso  1.000000 Au
   Au6081     1.0     0.486207      0.624138      0.762070     Biso  1.000000 Au
   Au6082     1.0     0.486207      0.651725      0.734483     Biso  1.000000 Au
   Au6083     1.0     0.513793      0.624138      0.734483     Biso  1.000000 Au
   Au6084     1.0     0.513793      0.651725      0.762070     Biso  1.000000 Au
   Au6085     1.0     0.541380      0.624138      0.762070     Biso  1.000000 Au
   Au6086     1.0     0.541380      0.651725      0.734483     Biso  1.000000 Au
   Au6087     1.0     0.568965      0.624138      0.734483     Biso  1.000000 Au
   Au6088     1.0     0.568965      0.651725      0.762070     Biso  1.000000 Au
   Au6089     1.0     0.596551      0.624138      0.762070     Biso  1.000000 Au
   Au6090     1.0     0.596551      0.651725      0.734483     Biso  1.000000 Au
   Au6091     1.0     0.624138      0.624138      0.734483     Biso  1.000000 Au
   Au6092     1.0     0.624138      0.651725      0.762070     Biso  1.000000 Au
   Au6093     1.0     0.651725      0.624138      0.762070     Biso  1.000000 Au
   Au6094     1.0     0.651725      0.651725      0.734483     Biso  1.000000 Au
   Au6095     1.0     0.679310      0.624138      0.734483     Biso  1.000000 Au
   Au6096     1.0     0.679310      0.651725      0.762070     Biso  1.000000 Au
   Au6097     1.0     0.706897      0.624138      0.762070     Biso  1.000000 Au
   Au6098     1.0     0.706897      0.651725      0.734483     Biso  1.000000 Au
   Au6099     1.0     0.734483      0.624138      0.734483     Biso  1.000000 Au
   Au6100     1.0     0.734483      0.651725      0.762070     Biso  1.000000 Au
   Au6101     1.0     0.762070      0.624138      0.762070     Biso  1.000000 Au
   Au6102     1.0     0.762070      0.651725      0.734483     Biso  1.000000 Au
   Au6103     1.0     0.789655      0.624138      0.734483     Biso  1.000000 Au
   Au6104     1.0     0.237930      0.679310      0.734483     Biso  1.000000 Au
   Au6105     1.0     0.265517      0.679310      0.762070     Biso  1.000000 Au
   Au6106     1.0     0.265517      0.706897      0.734483     Biso  1.000000 Au
   Au6107     1.0     0.293103      0.679310      0.734483     Biso  1.000000 Au
   Au6108     1.0     0.293103      0.706897      0.762070     Biso  1.000000 Au
   Au6109     1.0     0.320690      0.679310      0.762070     Biso  1.000000 Au
   Au6110     1.0     0.320690      0.706897      0.734483     Biso  1.000000 Au
   Au6111     1.0     0.348275      0.679310      0.734483     Biso  1.000000 Au
   Au6112     1.0     0.348275      0.706897      0.762070     Biso  1.000000 Au
   Au6113     1.0     0.375862      0.679310      0.762070     Biso  1.000000 Au
   Au6114     1.0     0.375862      0.706897      0.734483     Biso  1.000000 Au
   Au6115     1.0     0.403448      0.679310      0.734483     Biso  1.000000 Au
   Au6116     1.0     0.403448      0.706897      0.762070     Biso  1.000000 Au
   Au6117     1.0     0.431035      0.679310      0.762070     Biso  1.000000 Au
   Au6118     1.0     0.431035      0.706897      0.734483     Biso  1.000000 Au
   Au6119     1.0     0.458620      0.679310      0.734483     Biso  1.000000 Au
   Au6120     1.0     0.458620      0.706897      0.762070     Biso  1.000000 Au
   Au6121     1.0     0.486207      0.679310      0.762070     Biso  1.000000 Au
   Au6122     1.0     0.486207      0.706897      0.734483     Biso  1.000000 Au
   Au6123     1.0     0.513793      0.679310      0.734483     Biso  1.000000 Au
   Au6124     1.0     0.513793      0.706897      0.762070     Biso  1.000000 Au
   Au6125     1.0     0.541380      0.679310      0.762070     Biso  1.000000 Au
   Au6126     1.0     0.541380      0.706897      0.734483     Biso  1.000000 Au
   Au6127     1.0     0.568965      0.679310      0.734483     Biso  1.000000 Au
   Au6128     1.0     0.568965      0.706897      0.762070     Biso  1.000000 Au
   Au6129     1.0     0.596551      0.679310      0.762070     Biso  1.000000 Au
   Au6130     1.0     0.596551      0.706897      0.734483     Biso  1.000000 Au
   Au6131     1.0     0.624138      0.679310      0.734483     Biso  1.000000 Au
   Au6132     1.0     0.624138      0.706897      0.762070     Biso  1.000000 Au
   Au6133     1.0     0.651725      0.679310      0.762070     Biso  1.000000 Au
   Au6134     1.0     0.651725      0.706897      0.734483     Biso  1.000000 Au
   Au6135     1.0     0.679310      0.679310      0.734483     Biso  1.000000 Au
   Au6136     1.0     0.679310      0.706897      0.762070     Biso  1.000000 Au
   Au6137     1.0     0.706897      0.679310      0.762070     Biso  1.000000 Au
   Au6138     1.0     0.706897      0.706897      0.734483     Biso  1.000000 Au
   Au6139     1.0     0.734483      0.679310      0.734483     Biso  1.000000 Au
   Au6140     1.0     0.293103      0.734483      0.734483     Biso  1.000000 Au
   Au6141     1.0     0.320690      0.734483      0.762070     Biso  1.000000 Au
   Au6142     1.0     0.320690      0.762070      0.734483     Biso  1.000000 Au
   Au6143     1.0     0.348275      0.734483      0.734483     Biso  1.000000 Au
   Au6144     1.0     0.348275      0.762070      0.762070     Biso  1.000000 Au
   Au6145     1.0     0.375862      0.734483      0.762070     Biso  1.000000 Au
   Au6146     1.0     0.375862      0.762070      0.734483     Biso  1.000000 Au
   Au6147     1.0     0.403448      0.734483      0.734483     Biso  1.000000 Au
   Au6148     1.0     0.403448      0.762070      0.762070     Biso  1.000000 Au
   Au6149     1.0     0.431035      0.734483      0.762070     Biso  1.000000 Au
   Au6150     1.0     0.431035      0.762070      0.734483     Biso  1.000000 Au
   Au6151     1.0     0.458620      0.734483      0.734483     Biso  1.000000 Au
   Au6152     1.0     0.458620      0.762070      0.762070     Biso  1.000000 Au
   Au6153     1.0     0.486207      0.734483      0.762070     Biso  1.000000 Au
   Au6154     1.0     0.486207      0.762070      0.734483     Biso  1.000000 Au
   Au6155     1.0     0.513793      0.734483      0.734483     Biso  1.000000 Au
   Au6156     1.0     0.513793      0.762070      0.762070     Biso  1.000000 Au
   Au6157     1.0     0.541380      0.734483      0.762070     Biso  1.000000 Au
   Au6158     1.0     0.541380      0.762070      0.734483     Biso  1.000000 Au
   Au6159     1.0     0.568965      0.734483      0.734483     Biso  1.000000 Au
   Au6160     1.0     0.568965      0.762070      0.762070     Biso  1.000000 Au
   Au6161     1.0     0.596551      0.734483      0.762070     Biso  1.000000 Au
   Au6162     1.0     0.596551      0.762070      0.734483     Biso  1.000000 Au
   Au6163     1.0     0.624138      0.734483      0.734483     Biso  1.000000 Au
   Au6164     1.0     0.624138      0.762070      0.762070     Biso  1.000000 Au
   Au6165     1.0     0.651725      0.734483      0.762070     Biso  1.000000 Au
   Au6166     1.0     0.651725      0.762070      0.734483     Biso  1.000000 Au
   Au6167     1.0     0.679310      0.734483      0.734483     Biso  1.000000 Au
   Au6168     1.0     0.348275      0.789655      0.734483     Biso  1.000000 Au
   Au6169     1.0     0.403448      0.789655      0.734483     Biso  1.000000 Au
   Au6170     1.0     0.431035      0.789655      0.762070     Biso  1.000000 Au
   Au6171     1.0     0.431035      0.817242      0.734483     Biso  1.000000 Au
   Au6172     1.0     0.458620      0.789655      0.734483     Biso  1.000000 Au
   Au6173     1.0     0.486207      0.789655      0.762070     Biso  1.000000 Au
   Au6174     1.0     0.486207      0.817242      0.734483     Biso  1.000000 Au
   Au6175     1.0     0.513793      0.789655      0.734483     Biso  1.000000 Au
   Au6176     1.0     0.541380      0.789655      0.762070     Biso  1.000000 Au
   Au6177     1.0     0.541380      0.817242      0.734483     Biso  1.000000 Au
   Au6178     1.0     0.568965      0.789655      0.734483     Biso  1.000000 Au
   Au6179     1.0     0.596551      0.789655      0.762070     Biso  1.000000 Au
   Au6180     1.0     0.624138      0.789655      0.734483     Biso  1.000000 Au
   Au6181     1.0     0.375862      0.265517      0.789655     Biso  1.000000 Au
   Au6182     1.0     0.403448      0.237930      0.789655     Biso  1.000000 Au
   Au6183     1.0     0.431035      0.265517      0.789655     Biso  1.000000 Au
   Au6184     1.0     0.458620      0.237930      0.789655     Biso  1.000000 Au
   Au6185     1.0     0.458620      0.265517      0.817242     Biso  1.000000 Au
   Au6186     1.0     0.486207      0.265517      0.789655     Biso  1.000000 Au
   Au6187     1.0     0.513793      0.237930      0.789655     Biso  1.000000 Au
   Au6188     1.0     0.513793      0.265517      0.817242     Biso  1.000000 Au
   Au6189     1.0     0.541380      0.265517      0.789655     Biso  1.000000 Au
   Au6190     1.0     0.568965      0.237930      0.789655     Biso  1.000000 Au
   Au6191     1.0     0.568965      0.265517      0.817242     Biso  1.000000 Au
   Au6192     1.0     0.596551      0.265517      0.789655     Biso  1.000000 Au
   Au6193     1.0     0.651725      0.265517      0.789655     Biso  1.000000 Au
   Au6194     1.0     0.320690      0.320690      0.789655     Biso  1.000000 Au
   Au6195     1.0     0.348275      0.293103      0.789655     Biso  1.000000 Au
   Au6196     1.0     0.348275      0.320690      0.817242     Biso  1.000000 Au
   Au6197     1.0     0.375862      0.293103      0.817242     Biso  1.000000 Au
   Au6198     1.0     0.375862      0.320690      0.789655     Biso  1.000000 Au
   Au6199     1.0     0.403448      0.293103      0.789655     Biso  1.000000 Au
   Au6200     1.0     0.403448      0.320690      0.817242     Biso  1.000000 Au
   Au6201     1.0     0.431035      0.293103      0.817242     Biso  1.000000 Au
   Au6202     1.0     0.431035      0.320690      0.789655     Biso  1.000000 Au
   Au6203     1.0     0.458620      0.293103      0.789655     Biso  1.000000 Au
   Au6204     1.0     0.458620      0.320690      0.817242     Biso  1.000000 Au
   Au6205     1.0     0.486207      0.293103      0.817242     Biso  1.000000 Au
   Au6206     1.0     0.486207      0.320690      0.789655     Biso  1.000000 Au
   Au6207     1.0     0.513793      0.293103      0.789655     Biso  1.000000 Au
   Au6208     1.0     0.513793      0.320690      0.817242     Biso  1.000000 Au
   Au6209     1.0     0.541380      0.293103      0.817242     Biso  1.000000 Au
   Au6210     1.0     0.541380      0.320690      0.789655     Biso  1.000000 Au
   Au6211     1.0     0.568965      0.293103      0.789655     Biso  1.000000 Au
   Au6212     1.0     0.568965      0.320690      0.817242     Biso  1.000000 Au
   Au6213     1.0     0.596551      0.293103      0.817242     Biso  1.000000 Au
   Au6214     1.0     0.596551      0.320690      0.789655     Biso  1.000000 Au
   Au6215     1.0     0.624138      0.293103      0.789655     Biso  1.000000 Au
   Au6216     1.0     0.624138      0.320690      0.817242     Biso  1.000000 Au
   Au6217     1.0     0.651725      0.320690      0.789655     Biso  1.000000 Au
   Au6218     1.0     0.679310      0.293103      0.789655     Biso  1.000000 Au
   Au6219     1.0     0.706897      0.320690      0.789655     Biso  1.000000 Au
   Au6220     1.0     0.265517      0.375862      0.789655     Biso  1.000000 Au
   Au6221     1.0     0.293103      0.348275      0.789655     Biso  1.000000 Au
   Au6222     1.0     0.293103      0.375862      0.817242     Biso  1.000000 Au
   Au6223     1.0     0.320690      0.348275      0.817242     Biso  1.000000 Au
   Au6224     1.0     0.320690      0.375862      0.789655     Biso  1.000000 Au
   Au6225     1.0     0.348275      0.348275      0.789655     Biso  1.000000 Au
   Au6226     1.0     0.348275      0.375862      0.817242     Biso  1.000000 Au
   Au6227     1.0     0.375862      0.348275      0.817242     Biso  1.000000 Au
   Au6228     1.0     0.375862      0.375862      0.789655     Biso  1.000000 Au
   Au6229     1.0     0.403448      0.348275      0.789655     Biso  1.000000 Au
   Au6230     1.0     0.403448      0.375862      0.817242     Biso  1.000000 Au
   Au6231     1.0     0.431035      0.348275      0.817242     Biso  1.000000 Au
   Au6232     1.0     0.431035      0.375862      0.789655     Biso  1.000000 Au
   Au6233     1.0     0.458620      0.348275      0.789655     Biso  1.000000 Au
   Au6234     1.0     0.458620      0.375862      0.817242     Biso  1.000000 Au
   Au6235     1.0     0.486207      0.348275      0.817242     Biso  1.000000 Au
   Au6236     1.0     0.486207      0.375862      0.789655     Biso  1.000000 Au
   Au6237     1.0     0.513793      0.348275      0.789655     Biso  1.000000 Au
   Au6238     1.0     0.513793      0.375862      0.817242     Biso  1.000000 Au
   Au6239     1.0     0.541380      0.348275      0.817242     Biso  1.000000 Au
   Au6240     1.0     0.541380      0.375862      0.789655     Biso  1.000000 Au
   Au6241     1.0     0.568965      0.348275      0.789655     Biso  1.000000 Au
   Au6242     1.0     0.568965      0.375862      0.817242     Biso  1.000000 Au
   Au6243     1.0     0.596551      0.348275      0.817242     Biso  1.000000 Au
   Au6244     1.0     0.596551      0.375862      0.789655     Biso  1.000000 Au
   Au6245     1.0     0.624138      0.348275      0.789655     Biso  1.000000 Au
   Au6246     1.0     0.624138      0.375862      0.817242     Biso  1.000000 Au
   Au6247     1.0     0.651725      0.348275      0.817242     Biso  1.000000 Au
   Au6248     1.0     0.651725      0.375862      0.789655     Biso  1.000000 Au
   Au6249     1.0     0.679310      0.348275      0.789655     Biso  1.000000 Au
   Au6250     1.0     0.679310      0.375862      0.817242     Biso  1.000000 Au
   Au6251     1.0     0.706897      0.375862      0.789655     Biso  1.000000 Au
   Au6252     1.0     0.734483      0.348275      0.789655     Biso  1.000000 Au
   Au6253     1.0     0.237930      0.403448      0.789655     Biso  1.000000 Au
   Au6254     1.0     0.265517      0.431035      0.789655     Biso  1.000000 Au
   Au6255     1.0     0.293103      0.403448      0.789655     Biso  1.000000 Au
   Au6256     1.0     0.293103      0.431035      0.817242     Biso  1.000000 Au
   Au6257     1.0     0.320690      0.403448      0.817242     Biso  1.000000 Au
   Au6258     1.0     0.320690      0.431035      0.789655     Biso  1.000000 Au
   Au6259     1.0     0.348275      0.403448      0.789655     Biso  1.000000 Au
   Au6260     1.0     0.348275      0.431035      0.817242     Biso  1.000000 Au
   Au6261     1.0     0.375862      0.403448      0.817242     Biso  1.000000 Au
   Au6262     1.0     0.375862      0.431035      0.789655     Biso  1.000000 Au
   Au6263     1.0     0.403448      0.403448      0.789655     Biso  1.000000 Au
   Au6264     1.0     0.403448      0.431035      0.817242     Biso  1.000000 Au
   Au6265     1.0     0.431035      0.403448      0.817242     Biso  1.000000 Au
   Au6266     1.0     0.431035      0.431035      0.789655     Biso  1.000000 Au
   Au6267     1.0     0.458620      0.403448      0.789655     Biso  1.000000 Au
   Au6268     1.0     0.458620      0.431035      0.817242     Biso  1.000000 Au
   Au6269     1.0     0.486207      0.403448      0.817242     Biso  1.000000 Au
   Au6270     1.0     0.486207      0.431035      0.789655     Biso  1.000000 Au
   Au6271     1.0     0.513793      0.403448      0.789655     Biso  1.000000 Au
   Au6272     1.0     0.513793      0.431035      0.817242     Biso  1.000000 Au
   Au6273     1.0     0.541380      0.403448      0.817242     Biso  1.000000 Au
   Au6274     1.0     0.541380      0.431035      0.789655     Biso  1.000000 Au
   Au6275     1.0     0.568965      0.403448      0.789655     Biso  1.000000 Au
   Au6276     1.0     0.568965      0.431035      0.817242     Biso  1.000000 Au
   Au6277     1.0     0.596551      0.403448      0.817242     Biso  1.000000 Au
   Au6278     1.0     0.596551      0.431035      0.789655     Biso  1.000000 Au
   Au6279     1.0     0.624138      0.403448      0.789655     Biso  1.000000 Au
   Au6280     1.0     0.624138      0.431035      0.817242     Biso  1.000000 Au
   Au6281     1.0     0.651725      0.403448      0.817242     Biso  1.000000 Au
   Au6282     1.0     0.651725      0.431035      0.789655     Biso  1.000000 Au
   Au6283     1.0     0.679310      0.403448      0.789655     Biso  1.000000 Au
   Au6284     1.0     0.679310      0.431035      0.817242     Biso  1.000000 Au
   Au6285     1.0     0.706897      0.403448      0.817242     Biso  1.000000 Au
   Au6286     1.0     0.706897      0.431035      0.789655     Biso  1.000000 Au
   Au6287     1.0     0.734483      0.403448      0.789655     Biso  1.000000 Au
   Au6288     1.0     0.734483      0.431035      0.817242     Biso  1.000000 Au
   Au6289     1.0     0.762070      0.431035      0.789655     Biso  1.000000 Au
   Au6290     1.0     0.237930      0.458620      0.789655     Biso  1.000000 Au
   Au6291     1.0     0.265517      0.458620      0.817242     Biso  1.000000 Au
   Au6292     1.0     0.265517      0.486207      0.789655     Biso  1.000000 Au
   Au6293     1.0     0.293103      0.458620      0.789655     Biso  1.000000 Au
   Au6294     1.0     0.293103      0.486207      0.817242     Biso  1.000000 Au
   Au6295     1.0     0.320690      0.458620      0.817242     Biso  1.000000 Au
   Au6296     1.0     0.320690      0.486207      0.789655     Biso  1.000000 Au
   Au6297     1.0     0.348275      0.458620      0.789655     Biso  1.000000 Au
   Au6298     1.0     0.348275      0.486207      0.817242     Biso  1.000000 Au
   Au6299     1.0     0.375862      0.458620      0.817242     Biso  1.000000 Au
   Au6300     1.0     0.375862      0.486207      0.789655     Biso  1.000000 Au
   Au6301     1.0     0.403448      0.458620      0.789655     Biso  1.000000 Au
   Au6302     1.0     0.403448      0.486207      0.817242     Biso  1.000000 Au
   Au6303     1.0     0.431035      0.458620      0.817242     Biso  1.000000 Au
   Au6304     1.0     0.431035      0.486207      0.789655     Biso  1.000000 Au
   Au6305     1.0     0.458620      0.458620      0.789655     Biso  1.000000 Au
   Au6306     1.0     0.458620      0.486207      0.817242     Biso  1.000000 Au
   Au6307     1.0     0.486207      0.458620      0.817242     Biso  1.000000 Au
   Au6308     1.0     0.486207      0.486207      0.789655     Biso  1.000000 Au
   Au6309     1.0     0.513793      0.458620      0.789655     Biso  1.000000 Au
   Au6310     1.0     0.513793      0.486207      0.817242     Biso  1.000000 Au
   Au6311     1.0     0.541380      0.458620      0.817242     Biso  1.000000 Au
   Au6312     1.0     0.541380      0.486207      0.789655     Biso  1.000000 Au
   Au6313     1.0     0.568965      0.458620      0.789655     Biso  1.000000 Au
   Au6314     1.0     0.568965      0.486207      0.817242     Biso  1.000000 Au
   Au6315     1.0     0.596551      0.458620      0.817242     Biso  1.000000 Au
   Au6316     1.0     0.596551      0.486207      0.789655     Biso  1.000000 Au
   Au6317     1.0     0.624138      0.458620      0.789655     Biso  1.000000 Au
   Au6318     1.0     0.624138      0.486207      0.817242     Biso  1.000000 Au
   Au6319     1.0     0.651725      0.458620      0.817242     Biso  1.000000 Au
   Au6320     1.0     0.651725      0.486207      0.789655     Biso  1.000000 Au
   Au6321     1.0     0.679310      0.458620      0.789655     Biso  1.000000 Au
   Au6322     1.0     0.679310      0.486207      0.817242     Biso  1.000000 Au
   Au6323     1.0     0.706897      0.458620      0.817242     Biso  1.000000 Au
   Au6324     1.0     0.706897      0.486207      0.789655     Biso  1.000000 Au
   Au6325     1.0     0.734483      0.458620      0.789655     Biso  1.000000 Au
   Au6326     1.0     0.734483      0.486207      0.817242     Biso  1.000000 Au
   Au6327     1.0     0.762070      0.486207      0.789655     Biso  1.000000 Au
   Au6328     1.0     0.237930      0.513793      0.789655     Biso  1.000000 Au
   Au6329     1.0     0.265517      0.513793      0.817242     Biso  1.000000 Au
   Au6330     1.0     0.265517      0.541380      0.789655     Biso  1.000000 Au
   Au6331     1.0     0.293103      0.513793      0.789655     Biso  1.000000 Au
   Au6332     1.0     0.293103      0.541380      0.817242     Biso  1.000000 Au
   Au6333     1.0     0.320690      0.513793      0.817242     Biso  1.000000 Au
   Au6334     1.0     0.320690      0.541380      0.789655     Biso  1.000000 Au
   Au6335     1.0     0.348275      0.513793      0.789655     Biso  1.000000 Au
   Au6336     1.0     0.348275      0.541380      0.817242     Biso  1.000000 Au
   Au6337     1.0     0.375862      0.513793      0.817242     Biso  1.000000 Au
   Au6338     1.0     0.375862      0.541380      0.789655     Biso  1.000000 Au
   Au6339     1.0     0.403448      0.513793      0.789655     Biso  1.000000 Au
   Au6340     1.0     0.403448      0.541380      0.817242     Biso  1.000000 Au
   Au6341     1.0     0.431035      0.513793      0.817242     Biso  1.000000 Au
   Au6342     1.0     0.431035      0.541380      0.789655     Biso  1.000000 Au
   Au6343     1.0     0.458620      0.513793      0.789655     Biso  1.000000 Au
   Au6344     1.0     0.458620      0.541380      0.817242     Biso  1.000000 Au
   Au6345     1.0     0.486207      0.513793      0.817242     Biso  1.000000 Au
   Au6346     1.0     0.486207      0.541380      0.789655     Biso  1.000000 Au
   Au6347     1.0     0.513793      0.513793      0.789655     Biso  1.000000 Au
   Au6348     1.0     0.513793      0.541380      0.817242     Biso  1.000000 Au
   Au6349     1.0     0.541380      0.513793      0.817242     Biso  1.000000 Au
   Au6350     1.0     0.541380      0.541380      0.789655     Biso  1.000000 Au
   Au6351     1.0     0.568965      0.513793      0.789655     Biso  1.000000 Au
   Au6352     1.0     0.568965      0.541380      0.817242     Biso  1.000000 Au
   Au6353     1.0     0.596551      0.513793      0.817242     Biso  1.000000 Au
   Au6354     1.0     0.596551      0.541380      0.789655     Biso  1.000000 Au
   Au6355     1.0     0.624138      0.513793      0.789655     Biso  1.000000 Au
   Au6356     1.0     0.624138      0.541380      0.817242     Biso  1.000000 Au
   Au6357     1.0     0.651725      0.513793      0.817242     Biso  1.000000 Au
   Au6358     1.0     0.651725      0.541380      0.789655     Biso  1.000000 Au
   Au6359     1.0     0.679310      0.513793      0.789655     Biso  1.000000 Au
   Au6360     1.0     0.679310      0.541380      0.817242     Biso  1.000000 Au
   Au6361     1.0     0.706897      0.513793      0.817242     Biso  1.000000 Au
   Au6362     1.0     0.706897      0.541380      0.789655     Biso  1.000000 Au
   Au6363     1.0     0.734483      0.513793      0.789655     Biso  1.000000 Au
   Au6364     1.0     0.734483      0.541380      0.817242     Biso  1.000000 Au
   Au6365     1.0     0.762070      0.541380      0.789655     Biso  1.000000 Au
   Au6366     1.0     0.237930      0.568965      0.789655     Biso  1.000000 Au
   Au6367     1.0     0.265517      0.568965      0.817242     Biso  1.000000 Au
   Au6368     1.0     0.265517      0.596551      0.789655     Biso  1.000000 Au
   Au6369     1.0     0.293103      0.568965      0.789655     Biso  1.000000 Au
   Au6370     1.0     0.293103      0.596551      0.817242     Biso  1.000000 Au
   Au6371     1.0     0.320690      0.568965      0.817242     Biso  1.000000 Au
   Au6372     1.0     0.320690      0.596551      0.789655     Biso  1.000000 Au
   Au6373     1.0     0.348275      0.568965      0.789655     Biso  1.000000 Au
   Au6374     1.0     0.348275      0.596551      0.817242     Biso  1.000000 Au
   Au6375     1.0     0.375862      0.568965      0.817242     Biso  1.000000 Au
   Au6376     1.0     0.375862      0.596551      0.789655     Biso  1.000000 Au
   Au6377     1.0     0.403448      0.568965      0.789655     Biso  1.000000 Au
   Au6378     1.0     0.403448      0.596551      0.817242     Biso  1.000000 Au
   Au6379     1.0     0.431035      0.568965      0.817242     Biso  1.000000 Au
   Au6380     1.0     0.431035      0.596551      0.789655     Biso  1.000000 Au
   Au6381     1.0     0.458620      0.568965      0.789655     Biso  1.000000 Au
   Au6382     1.0     0.458620      0.596551      0.817242     Biso  1.000000 Au
   Au6383     1.0     0.486207      0.568965      0.817242     Biso  1.000000 Au
   Au6384     1.0     0.486207      0.596551      0.789655     Biso  1.000000 Au
   Au6385     1.0     0.513793      0.568965      0.789655     Biso  1.000000 Au
   Au6386     1.0     0.513793      0.596551      0.817242     Biso  1.000000 Au
   Au6387     1.0     0.541380      0.568965      0.817242     Biso  1.000000 Au
   Au6388     1.0     0.541380      0.596551      0.789655     Biso  1.000000 Au
   Au6389     1.0     0.568965      0.568965      0.789655     Biso  1.000000 Au
   Au6390     1.0     0.568965      0.596551      0.817242     Biso  1.000000 Au
   Au6391     1.0     0.596551      0.568965      0.817242     Biso  1.000000 Au
   Au6392     1.0     0.596551      0.596551      0.789655     Biso  1.000000 Au
   Au6393     1.0     0.624138      0.568965      0.789655     Biso  1.000000 Au
   Au6394     1.0     0.624138      0.596551      0.817242     Biso  1.000000 Au
   Au6395     1.0     0.651725      0.568965      0.817242     Biso  1.000000 Au
   Au6396     1.0     0.651725      0.596551      0.789655     Biso  1.000000 Au
   Au6397     1.0     0.679310      0.568965      0.789655     Biso  1.000000 Au
   Au6398     1.0     0.679310      0.596551      0.817242     Biso  1.000000 Au
   Au6399     1.0     0.706897      0.568965      0.817242     Biso  1.000000 Au
   Au6400     1.0     0.706897      0.596551      0.789655     Biso  1.000000 Au
   Au6401     1.0     0.734483      0.568965      0.789655     Biso  1.000000 Au
   Au6402     1.0     0.762070      0.596551      0.789655     Biso  1.000000 Au
   Au6403     1.0     0.265517      0.651725      0.789655     Biso  1.000000 Au
   Au6404     1.0     0.293103      0.624138      0.789655     Biso  1.000000 Au
   Au6405     1.0     0.320690      0.624138      0.817242     Biso  1.000000 Au
   Au6406     1.0     0.320690      0.651725      0.789655     Biso  1.000000 Au
   Au6407     1.0     0.348275      0.624138      0.789655     Biso  1.000000 Au
   Au6408     1.0     0.348275      0.651725      0.817242     Biso  1.000000 Au
   Au6409     1.0     0.375862      0.624138      0.817242     Biso  1.000000 Au
   Au6410     1.0     0.375862      0.651725      0.789655     Biso  1.000000 Au
   Au6411     1.0     0.403448      0.624138      0.789655     Biso  1.000000 Au
   Au6412     1.0     0.403448      0.651725      0.817242     Biso  1.000000 Au
   Au6413     1.0     0.431035      0.624138      0.817242     Biso  1.000000 Au
   Au6414     1.0     0.431035      0.651725      0.789655     Biso  1.000000 Au
   Au6415     1.0     0.458620      0.624138      0.789655     Biso  1.000000 Au
   Au6416     1.0     0.458620      0.651725      0.817242     Biso  1.000000 Au
   Au6417     1.0     0.486207      0.624138      0.817242     Biso  1.000000 Au
   Au6418     1.0     0.486207      0.651725      0.789655     Biso  1.000000 Au
   Au6419     1.0     0.513793      0.624138      0.789655     Biso  1.000000 Au
   Au6420     1.0     0.513793      0.651725      0.817242     Biso  1.000000 Au
   Au6421     1.0     0.541380      0.624138      0.817242     Biso  1.000000 Au
   Au6422     1.0     0.541380      0.651725      0.789655     Biso  1.000000 Au
   Au6423     1.0     0.568965      0.624138      0.789655     Biso  1.000000 Au
   Au6424     1.0     0.568965      0.651725      0.817242     Biso  1.000000 Au
   Au6425     1.0     0.596551      0.624138      0.817242     Biso  1.000000 Au
   Au6426     1.0     0.596551      0.651725      0.789655     Biso  1.000000 Au
   Au6427     1.0     0.624138      0.624138      0.789655     Biso  1.000000 Au
   Au6428     1.0     0.624138      0.651725      0.817242     Biso  1.000000 Au
   Au6429     1.0     0.651725      0.624138      0.817242     Biso  1.000000 Au
   Au6430     1.0     0.651725      0.651725      0.789655     Biso  1.000000 Au
   Au6431     1.0     0.679310      0.624138      0.789655     Biso  1.000000 Au
   Au6432     1.0     0.679310      0.651725      0.817242     Biso  1.000000 Au
   Au6433     1.0     0.706897      0.624138      0.817242     Biso  1.000000 Au
   Au6434     1.0     0.706897      0.651725      0.789655     Biso  1.000000 Au
   Au6435     1.0     0.734483      0.624138      0.789655     Biso  1.000000 Au
   Au6436     1.0     0.293103      0.679310      0.789655     Biso  1.000000 Au
   Au6437     1.0     0.320690      0.706897      0.789655     Biso  1.000000 Au
   Au6438     1.0     0.348275      0.679310      0.789655     Biso  1.000000 Au
   Au6439     1.0     0.375862      0.679310      0.817242     Biso  1.000000 Au
   Au6440     1.0     0.375862      0.706897      0.789655     Biso  1.000000 Au
   Au6441     1.0     0.403448      0.679310      0.789655     Biso  1.000000 Au
   Au6442     1.0     0.403448      0.706897      0.817242     Biso  1.000000 Au
   Au6443     1.0     0.431035      0.679310      0.817242     Biso  1.000000 Au
   Au6444     1.0     0.431035      0.706897      0.789655     Biso  1.000000 Au
   Au6445     1.0     0.458620      0.679310      0.789655     Biso  1.000000 Au
   Au6446     1.0     0.458620      0.706897      0.817242     Biso  1.000000 Au
   Au6447     1.0     0.486207      0.679310      0.817242     Biso  1.000000 Au
   Au6448     1.0     0.486207      0.706897      0.789655     Biso  1.000000 Au
   Au6449     1.0     0.513793      0.679310      0.789655     Biso  1.000000 Au
   Au6450     1.0     0.513793      0.706897      0.817242     Biso  1.000000 Au
   Au6451     1.0     0.541380      0.679310      0.817242     Biso  1.000000 Au
   Au6452     1.0     0.541380      0.706897      0.789655     Biso  1.000000 Au
   Au6453     1.0     0.568965      0.679310      0.789655     Biso  1.000000 Au
   Au6454     1.0     0.568965      0.706897      0.817242     Biso  1.000000 Au
   Au6455     1.0     0.596551      0.679310      0.817242     Biso  1.000000 Au
   Au6456     1.0     0.596551      0.706897      0.789655     Biso  1.000000 Au
   Au6457     1.0     0.624138      0.679310      0.789655     Biso  1.000000 Au
   Au6458     1.0     0.624138      0.706897      0.817242     Biso  1.000000 Au
   Au6459     1.0     0.651725      0.679310      0.817242     Biso  1.000000 Au
   Au6460     1.0     0.651725      0.706897      0.789655     Biso  1.000000 Au
   Au6461     1.0     0.679310      0.679310      0.789655     Biso  1.000000 Au
   Au6462     1.0     0.348275      0.734483      0.789655     Biso  1.000000 Au
   Au6463     1.0     0.403448      0.734483      0.789655     Biso  1.000000 Au
   Au6464     1.0     0.431035      0.734483      0.817242     Biso  1.000000 Au
   Au6465     1.0     0.431035      0.762070      0.789655     Biso  1.000000 Au
   Au6466     1.0     0.458620      0.734483      0.789655     Biso  1.000000 Au
   Au6467     1.0     0.486207      0.734483      0.817242     Biso  1.000000 Au
   Au6468     1.0     0.486207      0.762070      0.789655     Biso  1.000000 Au
   Au6469     1.0     0.513793      0.734483      0.789655     Biso  1.000000 Au
   Au6470     1.0     0.541380      0.734483      0.817242     Biso  1.000000 Au
   Au6471     1.0     0.541380      0.762070      0.789655     Biso  1.000000 Au
   Au6472     1.0     0.568965      0.734483      0.789655     Biso  1.000000 Au
   Au6473     1.0     0.596551      0.762070      0.789655     Biso  1.000000 Au
   Au6474     1.0     0.624138      0.734483      0.789655     Biso  1.000000 Au
   Au6475     1.0     0.431035      0.320690      0.844828     Biso  1.000000 Au
   Au6476     1.0     0.458620      0.293103      0.844828     Biso  1.000000 Au
   Au6477     1.0     0.486207      0.320690      0.844828     Biso  1.000000 Au
   Au6478     1.0     0.513793      0.293103      0.844828     Biso  1.000000 Au
   Au6479     1.0     0.541380      0.320690      0.844828     Biso  1.000000 Au
   Au6480     1.0     0.596551      0.320690      0.844828     Biso  1.000000 Au
   Au6481     1.0     0.375862      0.375862      0.844828     Biso  1.000000 Au
   Au6482     1.0     0.403448      0.348275      0.844828     Biso  1.000000 Au
   Au6483     1.0     0.403448      0.375862      0.872413     Biso  1.000000 Au
   Au6484     1.0     0.431035      0.375862      0.844828     Biso  1.000000 Au
   Au6485     1.0     0.458620      0.348275      0.844828     Biso  1.000000 Au
   Au6486     1.0     0.458620      0.375862      0.872413     Biso  1.000000 Au
   Au6487     1.0     0.486207      0.348275      0.872413     Biso  1.000000 Au
   Au6488     1.0     0.486207      0.375862      0.844828     Biso  1.000000 Au
   Au6489     1.0     0.513793      0.348275      0.844828     Biso  1.000000 Au
   Au6490     1.0     0.513793      0.375862      0.872413     Biso  1.000000 Au
   Au6491     1.0     0.541380      0.348275      0.872413     Biso  1.000000 Au
   Au6492     1.0     0.541380      0.375862      0.844828     Biso  1.000000 Au
   Au6493     1.0     0.568965      0.348275      0.844828     Biso  1.000000 Au
   Au6494     1.0     0.568965      0.375862      0.872413     Biso  1.000000 Au
   Au6495     1.0     0.596551      0.375862      0.844828     Biso  1.000000 Au
   Au6496     1.0     0.624138      0.348275      0.844828     Biso  1.000000 Au
   Au6497     1.0     0.651725      0.375862      0.844828     Biso  1.000000 Au
   Au6498     1.0     0.320690      0.431035      0.844828     Biso  1.000000 Au
   Au6499     1.0     0.348275      0.403448      0.844828     Biso  1.000000 Au
   Au6500     1.0     0.375862      0.403448      0.872413     Biso  1.000000 Au
   Au6501     1.0     0.375862      0.431035      0.844828     Biso  1.000000 Au
   Au6502     1.0     0.403448      0.403448      0.844828     Biso  1.000000 Au
   Au6503     1.0     0.403448      0.431035      0.872413     Biso  1.000000 Au
   Au6504     1.0     0.431035      0.403448      0.872413     Biso  1.000000 Au
   Au6505     1.0     0.431035      0.431035      0.844828     Biso  1.000000 Au
   Au6506     1.0     0.458620      0.403448      0.844828     Biso  1.000000 Au
   Au6507     1.0     0.458620      0.431035      0.872413     Biso  1.000000 Au
   Au6508     1.0     0.486207      0.403448      0.872413     Biso  1.000000 Au
   Au6509     1.0     0.486207      0.431035      0.844828     Biso  1.000000 Au
   Au6510     1.0     0.513793      0.403448      0.844828     Biso  1.000000 Au
   Au6511     1.0     0.513793      0.431035      0.872413     Biso  1.000000 Au
   Au6512     1.0     0.541380      0.403448      0.872413     Biso  1.000000 Au
   Au6513     1.0     0.541380      0.431035      0.844828     Biso  1.000000 Au
   Au6514     1.0     0.568965      0.403448      0.844828     Biso  1.000000 Au
   Au6515     1.0     0.568965      0.431035      0.872413     Biso  1.000000 Au
   Au6516     1.0     0.596551      0.403448      0.872413     Biso  1.000000 Au
   Au6517     1.0     0.596551      0.431035      0.844828     Biso  1.000000 Au
   Au6518     1.0     0.624138      0.403448      0.844828     Biso  1.000000 Au
   Au6519     1.0     0.624138      0.431035      0.872413     Biso  1.000000 Au
   Au6520     1.0     0.651725      0.431035      0.844828     Biso  1.000000 Au
   Au6521     1.0     0.679310      0.403448      0.844828     Biso  1.000000 Au
   Au6522     1.0     0.293103      0.458620      0.844828     Biso  1.000000 Au
   Au6523     1.0     0.320690      0.486207      0.844828     Biso  1.000000 Au
   Au6524     1.0     0.348275      0.458620      0.844828     Biso  1.000000 Au
   Au6525     1.0     0.348275      0.486207      0.872413     Biso  1.000000 Au
   Au6526     1.0     0.375862      0.458620      0.872413     Biso  1.000000 Au
   Au6527     1.0     0.375862      0.486207      0.844828     Biso  1.000000 Au
   Au6528     1.0     0.403448      0.458620      0.844828     Biso  1.000000 Au
   Au6529     1.0     0.403448      0.486207      0.872413     Biso  1.000000 Au
   Au6530     1.0     0.431035      0.458620      0.872413     Biso  1.000000 Au
   Au6531     1.0     0.431035      0.486207      0.844828     Biso  1.000000 Au
   Au6532     1.0     0.458620      0.458620      0.844828     Biso  1.000000 Au
   Au6533     1.0     0.458620      0.486207      0.872413     Biso  1.000000 Au
   Au6534     1.0     0.486207      0.458620      0.872413     Biso  1.000000 Au
   Au6535     1.0     0.486207      0.486207      0.844828     Biso  1.000000 Au
   Au6536     1.0     0.513793      0.458620      0.844828     Biso  1.000000 Au
   Au6537     1.0     0.513793      0.486207      0.872413     Biso  1.000000 Au
   Au6538     1.0     0.541380      0.458620      0.872413     Biso  1.000000 Au
   Au6539     1.0     0.541380      0.486207      0.844828     Biso  1.000000 Au
   Au6540     1.0     0.568965      0.458620      0.844828     Biso  1.000000 Au
   Au6541     1.0     0.568965      0.486207      0.872413     Biso  1.000000 Au
   Au6542     1.0     0.596551      0.458620      0.872413     Biso  1.000000 Au
   Au6543     1.0     0.596551      0.486207      0.844828     Biso  1.000000 Au
   Au6544     1.0     0.624138      0.458620      0.844828     Biso  1.000000 Au
   Au6545     1.0     0.624138      0.486207      0.872413     Biso  1.000000 Au
   Au6546     1.0     0.651725      0.458620      0.872413     Biso  1.000000 Au
   Au6547     1.0     0.651725      0.486207      0.844828     Biso  1.000000 Au
   Au6548     1.0     0.679310      0.458620      0.844828     Biso  1.000000 Au
   Au6549     1.0     0.706897      0.486207      0.844828     Biso  1.000000 Au
   Au6550     1.0     0.293103      0.513793      0.844828     Biso  1.000000 Au
   Au6551     1.0     0.320690      0.541380      0.844828     Biso  1.000000 Au
   Au6552     1.0     0.348275      0.513793      0.844828     Biso  1.000000 Au
   Au6553     1.0     0.348275      0.541380      0.872413     Biso  1.000000 Au
   Au6554     1.0     0.375862      0.513793      0.872413     Biso  1.000000 Au
   Au6555     1.0     0.375862      0.541380      0.844828     Biso  1.000000 Au
   Au6556     1.0     0.403448      0.513793      0.844828     Biso  1.000000 Au
   Au6557     1.0     0.403448      0.541380      0.872413     Biso  1.000000 Au
   Au6558     1.0     0.431035      0.513793      0.872413     Biso  1.000000 Au
   Au6559     1.0     0.431035      0.541380      0.844828     Biso  1.000000 Au
   Au6560     1.0     0.458620      0.513793      0.844828     Biso  1.000000 Au
   Au6561     1.0     0.458620      0.541380      0.872413     Biso  1.000000 Au
   Au6562     1.0     0.486207      0.513793      0.872413     Biso  1.000000 Au
   Au6563     1.0     0.486207      0.541380      0.844828     Biso  1.000000 Au
   Au6564     1.0     0.513793      0.513793      0.844828     Biso  1.000000 Au
   Au6565     1.0     0.513793      0.541380      0.872413     Biso  1.000000 Au
   Au6566     1.0     0.541380      0.513793      0.872413     Biso  1.000000 Au
   Au6567     1.0     0.541380      0.541380      0.844828     Biso  1.000000 Au
   Au6568     1.0     0.568965      0.513793      0.844828     Biso  1.000000 Au
   Au6569     1.0     0.568965      0.541380      0.872413     Biso  1.000000 Au
   Au6570     1.0     0.596551      0.513793      0.872413     Biso  1.000000 Au
   Au6571     1.0     0.596551      0.541380      0.844828     Biso  1.000000 Au
   Au6572     1.0     0.624138      0.513793      0.844828     Biso  1.000000 Au
   Au6573     1.0     0.624138      0.541380      0.872413     Biso  1.000000 Au
   Au6574     1.0     0.651725      0.513793      0.872413     Biso  1.000000 Au
   Au6575     1.0     0.651725      0.541380      0.844828     Biso  1.000000 Au
   Au6576     1.0     0.679310      0.513793      0.844828     Biso  1.000000 Au
   Au6577     1.0     0.706897      0.541380      0.844828     Biso  1.000000 Au
   Au6578     1.0     0.320690      0.596551      0.844828     Biso  1.000000 Au
   Au6579     1.0     0.348275      0.568965      0.844828     Biso  1.000000 Au
   Au6580     1.0     0.375862      0.568965      0.872413     Biso  1.000000 Au
   Au6581     1.0     0.375862      0.596551      0.844828     Biso  1.000000 Au
   Au6582     1.0     0.403448      0.568965      0.844828     Biso  1.000000 Au
   Au6583     1.0     0.403448      0.596551      0.872413     Biso  1.000000 Au
   Au6584     1.0     0.431035      0.568965      0.872413     Biso  1.000000 Au
   Au6585     1.0     0.431035      0.596551      0.844828     Biso  1.000000 Au
   Au6586     1.0     0.458620      0.568965      0.844828     Biso  1.000000 Au
   Au6587     1.0     0.458620      0.596551      0.872413     Biso  1.000000 Au
   Au6588     1.0     0.486207      0.568965      0.872413     Biso  1.000000 Au
   Au6589     1.0     0.486207      0.596551      0.844828     Biso  1.000000 Au
   Au6590     1.0     0.513793      0.568965      0.844828     Biso  1.000000 Au
   Au6591     1.0     0.513793      0.596551      0.872413     Biso  1.000000 Au
   Au6592     1.0     0.541380      0.568965      0.872413     Biso  1.000000 Au
   Au6593     1.0     0.541380      0.596551      0.844828     Biso  1.000000 Au
   Au6594     1.0     0.568965      0.568965      0.844828     Biso  1.000000 Au
   Au6595     1.0     0.568965      0.596551      0.872413     Biso  1.000000 Au
   Au6596     1.0     0.596551      0.568965      0.872413     Biso  1.000000 Au
   Au6597     1.0     0.596551      0.596551      0.844828     Biso  1.000000 Au
   Au6598     1.0     0.624138      0.568965      0.844828     Biso  1.000000 Au
   Au6599     1.0     0.624138      0.596551      0.872413     Biso  1.000000 Au
   Au6600     1.0     0.651725      0.596551      0.844828     Biso  1.000000 Au
   Au6601     1.0     0.679310      0.568965      0.844828     Biso  1.000000 Au
   Au6602     1.0     0.348275      0.624138      0.844828     Biso  1.000000 Au
   Au6603     1.0     0.375862      0.651725      0.844828     Biso  1.000000 Au
   Au6604     1.0     0.403448      0.624138      0.844828     Biso  1.000000 Au
   Au6605     1.0     0.431035      0.624138      0.872413     Biso  1.000000 Au
   Au6606     1.0     0.431035      0.651725      0.844828     Biso  1.000000 Au
   Au6607     1.0     0.458620      0.624138      0.844828     Biso  1.000000 Au
   Au6608     1.0     0.458620      0.651725      0.872413     Biso  1.000000 Au
   Au6609     1.0     0.486207      0.624138      0.872413     Biso  1.000000 Au
   Au6610     1.0     0.486207      0.651725      0.844828     Biso  1.000000 Au
   Au6611     1.0     0.513793      0.624138      0.844828     Biso  1.000000 Au
   Au6612     1.0     0.513793      0.651725      0.872413     Biso  1.000000 Au
   Au6613     1.0     0.541380      0.624138      0.872413     Biso  1.000000 Au
   Au6614     1.0     0.541380      0.651725      0.844828     Biso  1.000000 Au
   Au6615     1.0     0.568965      0.624138      0.844828     Biso  1.000000 Au
   Au6616     1.0     0.596551      0.624138      0.872413     Biso  1.000000 Au
   Au6617     1.0     0.596551      0.651725      0.844828     Biso  1.000000 Au
   Au6618     1.0     0.624138      0.624138      0.844828     Biso  1.000000 Au
   Au6619     1.0     0.403448      0.679310      0.844828     Biso  1.000000 Au
   Au6620     1.0     0.458620      0.679310      0.844828     Biso  1.000000 Au
   Au6621     1.0     0.486207      0.706897      0.844828     Biso  1.000000 Au
   Au6622     1.0     0.513793      0.679310      0.844828     Biso  1.000000 Au
   Au6623     1.0     0.541380      0.706897      0.844828     Biso  1.000000 Au
   Au6624     1.0     0.568965      0.679310      0.844828     Biso  1.000000 Au
   Au6625     1.0     0.458620      0.458620      0.900000     Biso  1.000000 Au
   Au6626     1.0     0.486207      0.486207      0.900000     Biso  1.000000 Au
   Au6627     1.0     0.513793      0.458620      0.900000     Biso  1.000000 Au
   Au6628     1.0     0.541380      0.486207      0.900000     Biso  1.000000 Au
   Au6629     1.0     0.458620      0.513793      0.900000     Biso  1.000000 Au
   Au6630     1.0     0.486207      0.541380      0.900000     Biso  1.000000 Au
   Au6631     1.0     0.513793      0.513793      0.900000     Biso  1.000000 Au
   Au6632     1.0     0.541380      0.541380      0.900000     Biso  1.000000 Au
