#======================================================================

# CRYSTAL DATA

#----------------------------------------------------------------------

data_VESTA_phase_1


_chemical_name_common                  'generated by VMD'
_cell_length_a                         33.13612
_cell_length_b                         33.13612
_cell_length_c                         33.13612
_cell_angle_alpha                      90
_cell_angle_beta                       90
_cell_angle_gamma                      90
_space_group_name_H-M_alt              'Custom'
_space_group_IT_number                 1

loop_
_space_group_symop_operation_xyz
   'x, y, z'

loop_
   _atom_site_label
   _atom_site_occupancy
   _atom_site_fract_x
   _atom_site_fract_y
   _atom_site_fract_z
   _atom_site_adp_type
   _atom_site_B_iso_or_equiv
   _atom_site_type_symbol
   Au1        1.0     0.407691      0.346154      0.100000     Biso  1.000000 Au
   Au2        1.0     0.530769      0.346154      0.100000     Biso  1.000000 Au
   Au3        1.0     0.346154      0.407691      0.100000     Biso  1.000000 Au
   Au4        1.0     0.407691      0.469231      0.100000     Biso  1.000000 Au
   Au5        1.0     0.469231      0.407691      0.100000     Biso  1.000000 Au
   Au6        1.0     0.530769      0.469231      0.100000     Biso  1.000000 Au
   Au7        1.0     0.592309      0.407691      0.100000     Biso  1.000000 Au
   Au8        1.0     0.653846      0.469231      0.100000     Biso  1.000000 Au
   Au9        1.0     0.346154      0.530769      0.100000     Biso  1.000000 Au
   Au10       1.0     0.407691      0.592309      0.100000     Biso  1.000000 Au
   Au11       1.0     0.469231      0.530769      0.100000     Biso  1.000000 Au
   Au12       1.0     0.530769      0.592309      0.100000     Biso  1.000000 Au
   Au13       1.0     0.592309      0.530769      0.100000     Biso  1.000000 Au
   Au14       1.0     0.653846      0.592309      0.100000     Biso  1.000000 Au
   Au15       1.0     0.469231      0.653846      0.100000     Biso  1.000000 Au
   Au16       1.0     0.592309      0.653846      0.100000     Biso  1.000000 Au
   Au17       1.0     0.284614      0.223077      0.223077     Biso  1.000000 Au
   Au18       1.0     0.407691      0.223077      0.223077     Biso  1.000000 Au
   Au19       1.0     0.469231      0.161537      0.223077     Biso  1.000000 Au
   Au20       1.0     0.469231      0.223077      0.161537     Biso  1.000000 Au
   Au21       1.0     0.530769      0.223077      0.223077     Biso  1.000000 Au
   Au22       1.0     0.592309      0.161537      0.223077     Biso  1.000000 Au
   Au23       1.0     0.592309      0.223077      0.161537     Biso  1.000000 Au
   Au24       1.0     0.653846      0.223077      0.223077     Biso  1.000000 Au
   Au25       1.0     0.223077      0.284614      0.223077     Biso  1.000000 Au
   Au26       1.0     0.284614      0.346154      0.223077     Biso  1.000000 Au
   Au27       1.0     0.346154      0.284614      0.223077     Biso  1.000000 Au
   Au28       1.0     0.346154      0.346154      0.161537     Biso  1.000000 Au
   Au29       1.0     0.407691      0.284614      0.161537     Biso  1.000000 Au
   Au30       1.0     0.407691      0.346154      0.223077     Biso  1.000000 Au
   Au31       1.0     0.469231      0.284614      0.223077     Biso  1.000000 Au
   Au32       1.0     0.469231      0.346154      0.161537     Biso  1.000000 Au
   Au33       1.0     0.530769      0.284614      0.161537     Biso  1.000000 Au
   Au34       1.0     0.530769      0.346154      0.223077     Biso  1.000000 Au
   Au35       1.0     0.592309      0.284614      0.223077     Biso  1.000000 Au
   Au36       1.0     0.592309      0.346154      0.161537     Biso  1.000000 Au
   Au37       1.0     0.653846      0.284614      0.161537     Biso  1.000000 Au
   Au38       1.0     0.653846      0.346154      0.223077     Biso  1.000000 Au
   Au39       1.0     0.715383      0.284614      0.223077     Biso  1.000000 Au
   Au40       1.0     0.715383      0.346154      0.161537     Biso  1.000000 Au
   Au41       1.0     0.776923      0.346154      0.223077     Biso  1.000000 Au
   Au42       1.0     0.161537      0.469231      0.223077     Biso  1.000000 Au
   Au43       1.0     0.223077      0.407691      0.223077     Biso  1.000000 Au
   Au44       1.0     0.223077      0.469231      0.161537     Biso  1.000000 Au
   Au45       1.0     0.284614      0.407691      0.161537     Biso  1.000000 Au
   Au46       1.0     0.284614      0.469231      0.223077     Biso  1.000000 Au
   Au47       1.0     0.346154      0.407691      0.223077     Biso  1.000000 Au
   Au48       1.0     0.346154      0.469231      0.161537     Biso  1.000000 Au
   Au49       1.0     0.407691      0.407691      0.161537     Biso  1.000000 Au
   Au50       1.0     0.407691      0.469231      0.223077     Biso  1.000000 Au
   Au51       1.0     0.469231      0.407691      0.223077     Biso  1.000000 Au
   Au52       1.0     0.469231      0.469231      0.161537     Biso  1.000000 Au
   Au53       1.0     0.530769      0.407691      0.161537     Biso  1.000000 Au
   Au54       1.0     0.530769      0.469231      0.223077     Biso  1.000000 Au
   Au55       1.0     0.592309      0.407691      0.223077     Biso  1.000000 Au
   Au56       1.0     0.592309      0.469231      0.161537     Biso  1.000000 Au
   Au57       1.0     0.653846      0.407691      0.161537     Biso  1.000000 Au
   Au58       1.0     0.653846      0.469231      0.223077     Biso  1.000000 Au
   Au59       1.0     0.715383      0.407691      0.223077     Biso  1.000000 Au
   Au60       1.0     0.715383      0.469231      0.161537     Biso  1.000000 Au
   Au61       1.0     0.776923      0.407691      0.161537     Biso  1.000000 Au
   Au62       1.0     0.776923      0.469231      0.223077     Biso  1.000000 Au
   Au63       1.0     0.838463      0.407691      0.223077     Biso  1.000000 Au
   Au64       1.0     0.161537      0.592309      0.223077     Biso  1.000000 Au
   Au65       1.0     0.223077      0.530769      0.223077     Biso  1.000000 Au
   Au66       1.0     0.223077      0.592309      0.161537     Biso  1.000000 Au
   Au67       1.0     0.284614      0.530769      0.161537     Biso  1.000000 Au
   Au68       1.0     0.284614      0.592309      0.223077     Biso  1.000000 Au
   Au69       1.0     0.346154      0.530769      0.223077     Biso  1.000000 Au
   Au70       1.0     0.346154      0.592309      0.161537     Biso  1.000000 Au
   Au71       1.0     0.407691      0.530769      0.161537     Biso  1.000000 Au
   Au72       1.0     0.407691      0.592309      0.223077     Biso  1.000000 Au
   Au73       1.0     0.469231      0.530769      0.223077     Biso  1.000000 Au
   Au74       1.0     0.469231      0.592309      0.161537     Biso  1.000000 Au
   Au75       1.0     0.530769      0.530769      0.161537     Biso  1.000000 Au
   Au76       1.0     0.530769      0.592309      0.223077     Biso  1.000000 Au
   Au77       1.0     0.592309      0.530769      0.223077     Biso  1.000000 Au
   Au78       1.0     0.592309      0.592309      0.161537     Biso  1.000000 Au
   Au79       1.0     0.653846      0.530769      0.161537     Biso  1.000000 Au
   Au80       1.0     0.653846      0.592309      0.223077     Biso  1.000000 Au
   Au81       1.0     0.715383      0.530769      0.223077     Biso  1.000000 Au
   Au82       1.0     0.715383      0.592309      0.161537     Biso  1.000000 Au
   Au83       1.0     0.776923      0.530769      0.161537     Biso  1.000000 Au
   Au84       1.0     0.776923      0.592309      0.223077     Biso  1.000000 Au
   Au85       1.0     0.838463      0.530769      0.223077     Biso  1.000000 Au
   Au86       1.0     0.223077      0.653846      0.223077     Biso  1.000000 Au
   Au87       1.0     0.284614      0.653846      0.161537     Biso  1.000000 Au
   Au88       1.0     0.284614      0.715383      0.223077     Biso  1.000000 Au
   Au89       1.0     0.346154      0.653846      0.223077     Biso  1.000000 Au
   Au90       1.0     0.346154      0.715383      0.161537     Biso  1.000000 Au
   Au91       1.0     0.407691      0.653846      0.161537     Biso  1.000000 Au
   Au92       1.0     0.407691      0.715383      0.223077     Biso  1.000000 Au
   Au93       1.0     0.469231      0.653846      0.223077     Biso  1.000000 Au
   Au94       1.0     0.469231      0.715383      0.161537     Biso  1.000000 Au
   Au95       1.0     0.530769      0.653846      0.161537     Biso  1.000000 Au
   Au96       1.0     0.530769      0.715383      0.223077     Biso  1.000000 Au
   Au97       1.0     0.592309      0.653846      0.223077     Biso  1.000000 Au
   Au98       1.0     0.592309      0.715383      0.161537     Biso  1.000000 Au
   Au99       1.0     0.653846      0.653846      0.161537     Biso  1.000000 Au
   Au100      1.0     0.653846      0.715383      0.223077     Biso  1.000000 Au
   Au101      1.0     0.715383      0.653846      0.223077     Biso  1.000000 Au
   Au102      1.0     0.776923      0.715383      0.223077     Biso  1.000000 Au
   Au103      1.0     0.346154      0.776923      0.223077     Biso  1.000000 Au
   Au104      1.0     0.407691      0.776923      0.161537     Biso  1.000000 Au
   Au105      1.0     0.407691      0.838463      0.223077     Biso  1.000000 Au
   Au106      1.0     0.469231      0.776923      0.223077     Biso  1.000000 Au
   Au107      1.0     0.530769      0.776923      0.161537     Biso  1.000000 Au
   Au108      1.0     0.530769      0.838463      0.223077     Biso  1.000000 Au
   Au109      1.0     0.592309      0.776923      0.223077     Biso  1.000000 Au
   Au110      1.0     0.715383      0.776923      0.223077     Biso  1.000000 Au
   Au111      1.0     0.407691      0.100000      0.346154     Biso  1.000000 Au
   Au112      1.0     0.530769      0.100000      0.346154     Biso  1.000000 Au
   Au113      1.0     0.223077      0.223077      0.284614     Biso  1.000000 Au
   Au114      1.0     0.284614      0.223077      0.346154     Biso  1.000000 Au
   Au115      1.0     0.346154      0.161537      0.346154     Biso  1.000000 Au
   Au116      1.0     0.346154      0.223077      0.284614     Biso  1.000000 Au
   Au117      1.0     0.407691      0.161537      0.284614     Biso  1.000000 Au
   Au118      1.0     0.407691      0.223077      0.346154     Biso  1.000000 Au
   Au119      1.0     0.469231      0.161537      0.346154     Biso  1.000000 Au
   Au120      1.0     0.469231      0.223077      0.284614     Biso  1.000000 Au
   Au121      1.0     0.530769      0.161537      0.284614     Biso  1.000000 Au
   Au122      1.0     0.530769      0.223077      0.346154     Biso  1.000000 Au
   Au123      1.0     0.592309      0.161537      0.346154     Biso  1.000000 Au
   Au124      1.0     0.592309      0.223077      0.284614     Biso  1.000000 Au
   Au125      1.0     0.653846      0.161537      0.284614     Biso  1.000000 Au
   Au126      1.0     0.653846      0.223077      0.346154     Biso  1.000000 Au
   Au127      1.0     0.715383      0.161537      0.346154     Biso  1.000000 Au
   Au128      1.0     0.715383      0.223077      0.284614     Biso  1.000000 Au
   Au129      1.0     0.776923      0.223077      0.346154     Biso  1.000000 Au
   Au130      1.0     0.161537      0.346154      0.346154     Biso  1.000000 Au
   Au131      1.0     0.223077      0.284614      0.346154     Biso  1.000000 Au
   Au132      1.0     0.223077      0.346154      0.284614     Biso  1.000000 Au
   Au133      1.0     0.284614      0.284614      0.284614     Biso  1.000000 Au
   Au134      1.0     0.284614      0.346154      0.346154     Biso  1.000000 Au
   Au135      1.0     0.346154      0.284614      0.346154     Biso  1.000000 Au
   Au136      1.0     0.346154      0.346154      0.284614     Biso  1.000000 Au
   Au137      1.0     0.407691      0.284614      0.284614     Biso  1.000000 Au
   Au138      1.0     0.407691      0.346154      0.346154     Biso  1.000000 Au
   Au139      1.0     0.469231      0.284614      0.346154     Biso  1.000000 Au
   Au140      1.0     0.469231      0.346154      0.284614     Biso  1.000000 Au
   Au141      1.0     0.530769      0.284614      0.284614     Biso  1.000000 Au
   Au142      1.0     0.530769      0.346154      0.346154     Biso  1.000000 Au
   Au143      1.0     0.592309      0.284614      0.346154     Biso  1.000000 Au
   Au144      1.0     0.592309      0.346154      0.284614     Biso  1.000000 Au
   Au145      1.0     0.653846      0.284614      0.284614     Biso  1.000000 Au
   Au146      1.0     0.653846      0.346154      0.346154     Biso  1.000000 Au
   Au147      1.0     0.715383      0.284614      0.346154     Biso  1.000000 Au
   Au148      1.0     0.715383      0.346154      0.284614     Biso  1.000000 Au
   Au149      1.0     0.776923      0.284614      0.284614     Biso  1.000000 Au
   Au150      1.0     0.776923      0.346154      0.346154     Biso  1.000000 Au
   Au151      1.0     0.838463      0.284614      0.346154     Biso  1.000000 Au
   Au152      1.0     0.838463      0.346154      0.284614     Biso  1.000000 Au
   Au153      1.0     0.100000      0.407691      0.346154     Biso  1.000000 Au
   Au154      1.0     0.161537      0.407691      0.284614     Biso  1.000000 Au
   Au155      1.0     0.161537      0.469231      0.346154     Biso  1.000000 Au
   Au156      1.0     0.223077      0.407691      0.346154     Biso  1.000000 Au
   Au157      1.0     0.223077      0.469231      0.284614     Biso  1.000000 Au
   Au158      1.0     0.284614      0.407691      0.284614     Biso  1.000000 Au
   Au159      1.0     0.284614      0.469231      0.346154     Biso  1.000000 Au
   Au160      1.0     0.346154      0.407691      0.346154     Biso  1.000000 Au
   Au161      1.0     0.346154      0.469231      0.284614     Biso  1.000000 Au
   Au162      1.0     0.407691      0.407691      0.284614     Biso  1.000000 Au
   Au163      1.0     0.407691      0.469231      0.346154     Biso  1.000000 Au
   Au164      1.0     0.469231      0.407691      0.346154     Biso  1.000000 Au
   Au165      1.0     0.469231      0.469231      0.284614     Biso  1.000000 Au
   Au166      1.0     0.530769      0.407691      0.284614     Biso  1.000000 Au
   Au167      1.0     0.530769      0.469231      0.346154     Biso  1.000000 Au
   Au168      1.0     0.592309      0.407691      0.346154     Biso  1.000000 Au
   Au169      1.0     0.592309      0.469231      0.284614     Biso  1.000000 Au
   Au170      1.0     0.653846      0.407691      0.284614     Biso  1.000000 Au
   Au171      1.0     0.653846      0.469231      0.346154     Biso  1.000000 Au
   Au172      1.0     0.715383      0.407691      0.346154     Biso  1.000000 Au
   Au173      1.0     0.715383      0.469231      0.284614     Biso  1.000000 Au
   Au174      1.0     0.776923      0.407691      0.284614     Biso  1.000000 Au
   Au175      1.0     0.776923      0.469231      0.346154     Biso  1.000000 Au
   Au176      1.0     0.838463      0.407691      0.346154     Biso  1.000000 Au
   Au177      1.0     0.838463      0.469231      0.284614     Biso  1.000000 Au
   Au178      1.0     0.900000      0.469231      0.346154     Biso  1.000000 Au
   Au179      1.0     0.100000      0.530769      0.346154     Biso  1.000000 Au
   Au180      1.0     0.161537      0.530769      0.284614     Biso  1.000000 Au
   Au181      1.0     0.161537      0.592309      0.346154     Biso  1.000000 Au
   Au182      1.0     0.223077      0.530769      0.346154     Biso  1.000000 Au
   Au183      1.0     0.223077      0.592309      0.284614     Biso  1.000000 Au
   Au184      1.0     0.284614      0.530769      0.284614     Biso  1.000000 Au
   Au185      1.0     0.284614      0.592309      0.346154     Biso  1.000000 Au
   Au186      1.0     0.346154      0.530769      0.346154     Biso  1.000000 Au
   Au187      1.0     0.346154      0.592309      0.284614     Biso  1.000000 Au
   Au188      1.0     0.407691      0.530769      0.284614     Biso  1.000000 Au
   Au189      1.0     0.407691      0.592309      0.346154     Biso  1.000000 Au
   Au190      1.0     0.469231      0.530769      0.346154     Biso  1.000000 Au
   Au191      1.0     0.469231      0.592309      0.284614     Biso  1.000000 Au
   Au192      1.0     0.530769      0.530769      0.284614     Biso  1.000000 Au
   Au193      1.0     0.530769      0.592309      0.346154     Biso  1.000000 Au
   Au194      1.0     0.592309      0.530769      0.346154     Biso  1.000000 Au
   Au195      1.0     0.592309      0.592309      0.284614     Biso  1.000000 Au
   Au196      1.0     0.653846      0.530769      0.284614     Biso  1.000000 Au
   Au197      1.0     0.653846      0.592309      0.346154     Biso  1.000000 Au
   Au198      1.0     0.715383      0.530769      0.346154     Biso  1.000000 Au
   Au199      1.0     0.715383      0.592309      0.284614     Biso  1.000000 Au
   Au200      1.0     0.776923      0.530769      0.284614     Biso  1.000000 Au
   Au201      1.0     0.776923      0.592309      0.346154     Biso  1.000000 Au
   Au202      1.0     0.838463      0.530769      0.346154     Biso  1.000000 Au
   Au203      1.0     0.838463      0.592309      0.284614     Biso  1.000000 Au
   Au204      1.0     0.900000      0.592309      0.346154     Biso  1.000000 Au
   Au205      1.0     0.161537      0.653846      0.284614     Biso  1.000000 Au
   Au206      1.0     0.161537      0.715383      0.346154     Biso  1.000000 Au
   Au207      1.0     0.223077      0.653846      0.346154     Biso  1.000000 Au
   Au208      1.0     0.223077      0.715383      0.284614     Biso  1.000000 Au
   Au209      1.0     0.284614      0.653846      0.284614     Biso  1.000000 Au
   Au210      1.0     0.284614      0.715383      0.346154     Biso  1.000000 Au
   Au211      1.0     0.346154      0.653846      0.346154     Biso  1.000000 Au
   Au212      1.0     0.346154      0.715383      0.284614     Biso  1.000000 Au
   Au213      1.0     0.407691      0.653846      0.284614     Biso  1.000000 Au
   Au214      1.0     0.407691      0.715383      0.346154     Biso  1.000000 Au
   Au215      1.0     0.469231      0.653846      0.346154     Biso  1.000000 Au
   Au216      1.0     0.469231      0.715383      0.284614     Biso  1.000000 Au
   Au217      1.0     0.530769      0.653846      0.284614     Biso  1.000000 Au
   Au218      1.0     0.530769      0.715383      0.346154     Biso  1.000000 Au
   Au219      1.0     0.592309      0.653846      0.346154     Biso  1.000000 Au
   Au220      1.0     0.592309      0.715383      0.284614     Biso  1.000000 Au
   Au221      1.0     0.653846      0.653846      0.284614     Biso  1.000000 Au
   Au222      1.0     0.653846      0.715383      0.346154     Biso  1.000000 Au
   Au223      1.0     0.715383      0.653846      0.346154     Biso  1.000000 Au
   Au224      1.0     0.715383      0.715383      0.284614     Biso  1.000000 Au
   Au225      1.0     0.776923      0.653846      0.284614     Biso  1.000000 Au
   Au226      1.0     0.776923      0.715383      0.346154     Biso  1.000000 Au
   Au227      1.0     0.838463      0.653846      0.346154     Biso  1.000000 Au
   Au228      1.0     0.223077      0.776923      0.346154     Biso  1.000000 Au
   Au229      1.0     0.284614      0.776923      0.284614     Biso  1.000000 Au
   Au230      1.0     0.284614      0.838463      0.346154     Biso  1.000000 Au
   Au231      1.0     0.346154      0.776923      0.346154     Biso  1.000000 Au
   Au232      1.0     0.346154      0.838463      0.284614     Biso  1.000000 Au
   Au233      1.0     0.407691      0.776923      0.284614     Biso  1.000000 Au
   Au234      1.0     0.407691      0.838463      0.346154     Biso  1.000000 Au
   Au235      1.0     0.469231      0.776923      0.346154     Biso  1.000000 Au
   Au236      1.0     0.469231      0.838463      0.284614     Biso  1.000000 Au
   Au237      1.0     0.530769      0.776923      0.284614     Biso  1.000000 Au
   Au238      1.0     0.530769      0.838463      0.346154     Biso  1.000000 Au
   Au239      1.0     0.592309      0.776923      0.346154     Biso  1.000000 Au
   Au240      1.0     0.592309      0.838463      0.284614     Biso  1.000000 Au
   Au241      1.0     0.653846      0.776923      0.284614     Biso  1.000000 Au
   Au242      1.0     0.653846      0.838463      0.346154     Biso  1.000000 Au
   Au243      1.0     0.715383      0.776923      0.346154     Biso  1.000000 Au
   Au244      1.0     0.776923      0.776923      0.284614     Biso  1.000000 Au
   Au245      1.0     0.469231      0.900000      0.346154     Biso  1.000000 Au
   Au246      1.0     0.592309      0.900000      0.346154     Biso  1.000000 Au
   Au247      1.0     0.346154      0.100000      0.407691     Biso  1.000000 Au
   Au248      1.0     0.407691      0.100000      0.469231     Biso  1.000000 Au
   Au249      1.0     0.469231      0.100000      0.407691     Biso  1.000000 Au
   Au250      1.0     0.530769      0.100000      0.469231     Biso  1.000000 Au
   Au251      1.0     0.592309      0.100000      0.407691     Biso  1.000000 Au
   Au252      1.0     0.653846      0.100000      0.469231     Biso  1.000000 Au
   Au253      1.0     0.161537      0.223077      0.469231     Biso  1.000000 Au
   Au254      1.0     0.223077      0.161537      0.469231     Biso  1.000000 Au
   Au255      1.0     0.223077      0.223077      0.407691     Biso  1.000000 Au
   Au256      1.0     0.284614      0.161537      0.407691     Biso  1.000000 Au
   Au257      1.0     0.284614      0.223077      0.469231     Biso  1.000000 Au
   Au258      1.0     0.346154      0.161537      0.469231     Biso  1.000000 Au
   Au259      1.0     0.346154      0.223077      0.407691     Biso  1.000000 Au
   Au260      1.0     0.407691      0.161537      0.407691     Biso  1.000000 Au
   Au261      1.0     0.407691      0.223077      0.469231     Biso  1.000000 Au
   Au262      1.0     0.469231      0.161537      0.469231     Biso  1.000000 Au
   Au263      1.0     0.469231      0.223077      0.407691     Biso  1.000000 Au
   Au264      1.0     0.530769      0.161537      0.407691     Biso  1.000000 Au
   Au265      1.0     0.530769      0.223077      0.469231     Biso  1.000000 Au
   Au266      1.0     0.592309      0.161537      0.469231     Biso  1.000000 Au
   Au267      1.0     0.592309      0.223077      0.407691     Biso  1.000000 Au
   Au268      1.0     0.653846      0.161537      0.407691     Biso  1.000000 Au
   Au269      1.0     0.653846      0.223077      0.469231     Biso  1.000000 Au
   Au270      1.0     0.715383      0.161537      0.469231     Biso  1.000000 Au
   Au271      1.0     0.715383      0.223077      0.407691     Biso  1.000000 Au
   Au272      1.0     0.776923      0.161537      0.407691     Biso  1.000000 Au
   Au273      1.0     0.776923      0.223077      0.469231     Biso  1.000000 Au
   Au274      1.0     0.838463      0.223077      0.407691     Biso  1.000000 Au
   Au275      1.0     0.100000      0.346154      0.407691     Biso  1.000000 Au
   Au276      1.0     0.161537      0.284614      0.407691     Biso  1.000000 Au
   Au277      1.0     0.161537      0.346154      0.469231     Biso  1.000000 Au
   Au278      1.0     0.223077      0.284614      0.469231     Biso  1.000000 Au
   Au279      1.0     0.223077      0.346154      0.407691     Biso  1.000000 Au
   Au280      1.0     0.284614      0.284614      0.407691     Biso  1.000000 Au
   Au281      1.0     0.284614      0.346154      0.469231     Biso  1.000000 Au
   Au282      1.0     0.346154      0.284614      0.469231     Biso  1.000000 Au
   Au283      1.0     0.346154      0.346154      0.407691     Biso  1.000000 Au
   Au284      1.0     0.407691      0.284614      0.407691     Biso  1.000000 Au
   Au285      1.0     0.407691      0.346154      0.469231     Biso  1.000000 Au
   Au286      1.0     0.469231      0.284614      0.469231     Biso  1.000000 Au
   Au287      1.0     0.469231      0.346154      0.407691     Biso  1.000000 Au
   Au288      1.0     0.530769      0.284614      0.407691     Biso  1.000000 Au
   Au289      1.0     0.530769      0.346154      0.469231     Biso  1.000000 Au
   Au290      1.0     0.592309      0.284614      0.469231     Biso  1.000000 Au
   Au291      1.0     0.592309      0.346154      0.407691     Biso  1.000000 Au
   Au292      1.0     0.653846      0.284614      0.407691     Biso  1.000000 Au
   Au293      1.0     0.653846      0.346154      0.469231     Biso  1.000000 Au
   Au294      1.0     0.715383      0.284614      0.469231     Biso  1.000000 Au
   Au295      1.0     0.715383      0.346154      0.407691     Biso  1.000000 Au
   Au296      1.0     0.776923      0.284614      0.407691     Biso  1.000000 Au
   Au297      1.0     0.776923      0.346154      0.469231     Biso  1.000000 Au
   Au298      1.0     0.838463      0.284614      0.469231     Biso  1.000000 Au
   Au299      1.0     0.838463      0.346154      0.407691     Biso  1.000000 Au
   Au300      1.0     0.900000      0.346154      0.469231     Biso  1.000000 Au
   Au301      1.0     0.100000      0.407691      0.469231     Biso  1.000000 Au
   Au302      1.0     0.100000      0.469231      0.407691     Biso  1.000000 Au
   Au303      1.0     0.161537      0.407691      0.407691     Biso  1.000000 Au
   Au304      1.0     0.161537      0.469231      0.469231     Biso  1.000000 Au
   Au305      1.0     0.223077      0.407691      0.469231     Biso  1.000000 Au
   Au306      1.0     0.223077      0.469231      0.407691     Biso  1.000000 Au
   Au307      1.0     0.284614      0.407691      0.407691     Biso  1.000000 Au
   Au308      1.0     0.284614      0.469231      0.469231     Biso  1.000000 Au
   Au309      1.0     0.346154      0.407691      0.469231     Biso  1.000000 Au
   Au310      1.0     0.346154      0.469231      0.407691     Biso  1.000000 Au
   Au311      1.0     0.407691      0.407691      0.407691     Biso  1.000000 Au
   Au312      1.0     0.407691      0.469231      0.469231     Biso  1.000000 Au
   Au313      1.0     0.469231      0.407691      0.469231     Biso  1.000000 Au
   Au314      1.0     0.469231      0.469231      0.407691     Biso  1.000000 Au
   Au315      1.0     0.530769      0.407691      0.407691     Biso  1.000000 Au
   Au316      1.0     0.530769      0.469231      0.469231     Biso  1.000000 Au
   Au317      1.0     0.592309      0.407691      0.469231     Biso  1.000000 Au
   Au318      1.0     0.592309      0.469231      0.407691     Biso  1.000000 Au
   Au319      1.0     0.653846      0.407691      0.407691     Biso  1.000000 Au
   Au320      1.0     0.653846      0.469231      0.469231     Biso  1.000000 Au
   Au321      1.0     0.715383      0.407691      0.469231     Biso  1.000000 Au
   Au322      1.0     0.715383      0.469231      0.407691     Biso  1.000000 Au
   Au323      1.0     0.776923      0.407691      0.407691     Biso  1.000000 Au
   Au324      1.0     0.776923      0.469231      0.469231     Biso  1.000000 Au
   Au325      1.0     0.838463      0.407691      0.469231     Biso  1.000000 Au
   Au326      1.0     0.838463      0.469231      0.407691     Biso  1.000000 Au
   Au327      1.0     0.900000      0.407691      0.407691     Biso  1.000000 Au
   Au328      1.0     0.900000      0.469231      0.469231     Biso  1.000000 Au
   Au329      1.0     0.100000      0.530769      0.469231     Biso  1.000000 Au
   Au330      1.0     0.100000      0.592309      0.407691     Biso  1.000000 Au
   Au331      1.0     0.161537      0.530769      0.407691     Biso  1.000000 Au
   Au332      1.0     0.161537      0.592309      0.469231     Biso  1.000000 Au
   Au333      1.0     0.223077      0.530769      0.469231     Biso  1.000000 Au
   Au334      1.0     0.223077      0.592309      0.407691     Biso  1.000000 Au
   Au335      1.0     0.284614      0.530769      0.407691     Biso  1.000000 Au
   Au336      1.0     0.284614      0.592309      0.469231     Biso  1.000000 Au
   Au337      1.0     0.346154      0.530769      0.469231     Biso  1.000000 Au
   Au338      1.0     0.346154      0.592309      0.407691     Biso  1.000000 Au
   Au339      1.0     0.407691      0.530769      0.407691     Biso  1.000000 Au
   Au340      1.0     0.407691      0.592309      0.469231     Biso  1.000000 Au
   Au341      1.0     0.469231      0.530769      0.469231     Biso  1.000000 Au
   Au342      1.0     0.469231      0.592309      0.407691     Biso  1.000000 Au
   Au343      1.0     0.530769      0.530769      0.407691     Biso  1.000000 Au
   Au344      1.0     0.530769      0.592309      0.469231     Biso  1.000000 Au
   Au345      1.0     0.592309      0.530769      0.469231     Biso  1.000000 Au
   Au346      1.0     0.592309      0.592309      0.407691     Biso  1.000000 Au
   Au347      1.0     0.653846      0.530769      0.407691     Biso  1.000000 Au
   Au348      1.0     0.653846      0.592309      0.469231     Biso  1.000000 Au
   Au349      1.0     0.715383      0.530769      0.469231     Biso  1.000000 Au
   Au350      1.0     0.715383      0.592309      0.407691     Biso  1.000000 Au
   Au351      1.0     0.776923      0.530769      0.407691     Biso  1.000000 Au
   Au352      1.0     0.776923      0.592309      0.469231     Biso  1.000000 Au
   Au353      1.0     0.838463      0.530769      0.469231     Biso  1.000000 Au
   Au354      1.0     0.838463      0.592309      0.407691     Biso  1.000000 Au
   Au355      1.0     0.900000      0.530769      0.407691     Biso  1.000000 Au
   Au356      1.0     0.900000      0.592309      0.469231     Biso  1.000000 Au
   Au357      1.0     0.100000      0.653846      0.469231     Biso  1.000000 Au
   Au358      1.0     0.161537      0.653846      0.407691     Biso  1.000000 Au
   Au359      1.0     0.161537      0.715383      0.469231     Biso  1.000000 Au
   Au360      1.0     0.223077      0.653846      0.469231     Biso  1.000000 Au
   Au361      1.0     0.223077      0.715383      0.407691     Biso  1.000000 Au
   Au362      1.0     0.284614      0.653846      0.407691     Biso  1.000000 Au
   Au363      1.0     0.284614      0.715383      0.469231     Biso  1.000000 Au
   Au364      1.0     0.346154      0.653846      0.469231     Biso  1.000000 Au
   Au365      1.0     0.346154      0.715383      0.407691     Biso  1.000000 Au
   Au366      1.0     0.407691      0.653846      0.407691     Biso  1.000000 Au
   Au367      1.0     0.407691      0.715383      0.469231     Biso  1.000000 Au
   Au368      1.0     0.469231      0.653846      0.469231     Biso  1.000000 Au
   Au369      1.0     0.469231      0.715383      0.407691     Biso  1.000000 Au
   Au370      1.0     0.530769      0.653846      0.407691     Biso  1.000000 Au
   Au371      1.0     0.530769      0.715383      0.469231     Biso  1.000000 Au
   Au372      1.0     0.592309      0.653846      0.469231     Biso  1.000000 Au
   Au373      1.0     0.592309      0.715383      0.407691     Biso  1.000000 Au
   Au374      1.0     0.653846      0.653846      0.407691     Biso  1.000000 Au
   Au375      1.0     0.653846      0.715383      0.469231     Biso  1.000000 Au
   Au376      1.0     0.715383      0.653846      0.469231     Biso  1.000000 Au
   Au377      1.0     0.715383      0.715383      0.407691     Biso  1.000000 Au
   Au378      1.0     0.776923      0.653846      0.407691     Biso  1.000000 Au
   Au379      1.0     0.776923      0.715383      0.469231     Biso  1.000000 Au
   Au380      1.0     0.838463      0.653846      0.469231     Biso  1.000000 Au
   Au381      1.0     0.838463      0.715383      0.407691     Biso  1.000000 Au
   Au382      1.0     0.900000      0.653846      0.407691     Biso  1.000000 Au
   Au383      1.0     0.161537      0.776923      0.407691     Biso  1.000000 Au
   Au384      1.0     0.223077      0.776923      0.469231     Biso  1.000000 Au
   Au385      1.0     0.223077      0.838463      0.407691     Biso  1.000000 Au
   Au386      1.0     0.284614      0.776923      0.407691     Biso  1.000000 Au
   Au387      1.0     0.284614      0.838463      0.469231     Biso  1.000000 Au
   Au388      1.0     0.346154      0.776923      0.469231     Biso  1.000000 Au
   Au389      1.0     0.346154      0.838463      0.407691     Biso  1.000000 Au
   Au390      1.0     0.407691      0.776923      0.407691     Biso  1.000000 Au
   Au391      1.0     0.407691      0.838463      0.469231     Biso  1.000000 Au
   Au392      1.0     0.469231      0.776923      0.469231     Biso  1.000000 Au
   Au393      1.0     0.469231      0.838463      0.407691     Biso  1.000000 Au
   Au394      1.0     0.530769      0.776923      0.407691     Biso  1.000000 Au
   Au395      1.0     0.530769      0.838463      0.469231     Biso  1.000000 Au
   Au396      1.0     0.592309      0.776923      0.469231     Biso  1.000000 Au
   Au397      1.0     0.592309      0.838463      0.407691     Biso  1.000000 Au
   Au398      1.0     0.653846      0.776923      0.407691     Biso  1.000000 Au
   Au399      1.0     0.653846      0.838463      0.469231     Biso  1.000000 Au
   Au400      1.0     0.715383      0.776923      0.469231     Biso  1.000000 Au
   Au401      1.0     0.715383      0.838463      0.407691     Biso  1.000000 Au
   Au402      1.0     0.776923      0.776923      0.407691     Biso  1.000000 Au
   Au403      1.0     0.776923      0.838463      0.469231     Biso  1.000000 Au
   Au404      1.0     0.838463      0.776923      0.469231     Biso  1.000000 Au
   Au405      1.0     0.346154      0.900000      0.469231     Biso  1.000000 Au
   Au406      1.0     0.407691      0.900000      0.407691     Biso  1.000000 Au
   Au407      1.0     0.469231      0.900000      0.469231     Biso  1.000000 Au
   Au408      1.0     0.530769      0.900000      0.407691     Biso  1.000000 Au
   Au409      1.0     0.592309      0.900000      0.469231     Biso  1.000000 Au
   Au410      1.0     0.653846      0.900000      0.407691     Biso  1.000000 Au
   Au411      1.0     0.346154      0.100000      0.530769     Biso  1.000000 Au
   Au412      1.0     0.407691      0.100000      0.592309     Biso  1.000000 Au
   Au413      1.0     0.469231      0.100000      0.530769     Biso  1.000000 Au
   Au414      1.0     0.530769      0.100000      0.592309     Biso  1.000000 Au
   Au415      1.0     0.592309      0.100000      0.530769     Biso  1.000000 Au
   Au416      1.0     0.653846      0.100000      0.592309     Biso  1.000000 Au
   Au417      1.0     0.161537      0.223077      0.592309     Biso  1.000000 Au
   Au418      1.0     0.223077      0.161537      0.592309     Biso  1.000000 Au
   Au419      1.0     0.223077      0.223077      0.530769     Biso  1.000000 Au
   Au420      1.0     0.284614      0.161537      0.530769     Biso  1.000000 Au
   Au421      1.0     0.284614      0.223077      0.592309     Biso  1.000000 Au
   Au422      1.0     0.346154      0.161537      0.592309     Biso  1.000000 Au
   Au423      1.0     0.346154      0.223077      0.530769     Biso  1.000000 Au
   Au424      1.0     0.407691      0.161537      0.530769     Biso  1.000000 Au
   Au425      1.0     0.407691      0.223077      0.592309     Biso  1.000000 Au
   Au426      1.0     0.469231      0.161537      0.592309     Biso  1.000000 Au
   Au427      1.0     0.469231      0.223077      0.530769     Biso  1.000000 Au
   Au428      1.0     0.530769      0.161537      0.530769     Biso  1.000000 Au
   Au429      1.0     0.530769      0.223077      0.592309     Biso  1.000000 Au
   Au430      1.0     0.592309      0.161537      0.592309     Biso  1.000000 Au
   Au431      1.0     0.592309      0.223077      0.530769     Biso  1.000000 Au
   Au432      1.0     0.653846      0.161537      0.530769     Biso  1.000000 Au
   Au433      1.0     0.653846      0.223077      0.592309     Biso  1.000000 Au
   Au434      1.0     0.715383      0.161537      0.592309     Biso  1.000000 Au
   Au435      1.0     0.715383      0.223077      0.530769     Biso  1.000000 Au
   Au436      1.0     0.776923      0.161537      0.530769     Biso  1.000000 Au
   Au437      1.0     0.776923      0.223077      0.592309     Biso  1.000000 Au
   Au438      1.0     0.838463      0.223077      0.530769     Biso  1.000000 Au
   Au439      1.0     0.100000      0.346154      0.530769     Biso  1.000000 Au
   Au440      1.0     0.161537      0.284614      0.530769     Biso  1.000000 Au
   Au441      1.0     0.161537      0.346154      0.592309     Biso  1.000000 Au
   Au442      1.0     0.223077      0.284614      0.592309     Biso  1.000000 Au
   Au443      1.0     0.223077      0.346154      0.530769     Biso  1.000000 Au
   Au444      1.0     0.284614      0.284614      0.530769     Biso  1.000000 Au
   Au445      1.0     0.284614      0.346154      0.592309     Biso  1.000000 Au
   Au446      1.0     0.346154      0.284614      0.592309     Biso  1.000000 Au
   Au447      1.0     0.346154      0.346154      0.530769     Biso  1.000000 Au
   Au448      1.0     0.407691      0.284614      0.530769     Biso  1.000000 Au
   Au449      1.0     0.407691      0.346154      0.592309     Biso  1.000000 Au
   Au450      1.0     0.469231      0.284614      0.592309     Biso  1.000000 Au
   Au451      1.0     0.469231      0.346154      0.530769     Biso  1.000000 Au
   Au452      1.0     0.530769      0.284614      0.530769     Biso  1.000000 Au
   Au453      1.0     0.530769      0.346154      0.592309     Biso  1.000000 Au
   Au454      1.0     0.592309      0.284614      0.592309     Biso  1.000000 Au
   Au455      1.0     0.592309      0.346154      0.530769     Biso  1.000000 Au
   Au456      1.0     0.653846      0.284614      0.530769     Biso  1.000000 Au
   Au457      1.0     0.653846      0.346154      0.592309     Biso  1.000000 Au
   Au458      1.0     0.715383      0.284614      0.592309     Biso  1.000000 Au
   Au459      1.0     0.715383      0.346154      0.530769     Biso  1.000000 Au
   Au460      1.0     0.776923      0.284614      0.530769     Biso  1.000000 Au
   Au461      1.0     0.776923      0.346154      0.592309     Biso  1.000000 Au
   Au462      1.0     0.838463      0.284614      0.592309     Biso  1.000000 Au
   Au463      1.0     0.838463      0.346154      0.530769     Biso  1.000000 Au
   Au464      1.0     0.900000      0.346154      0.592309     Biso  1.000000 Au
   Au465      1.0     0.100000      0.407691      0.592309     Biso  1.000000 Au
   Au466      1.0     0.100000      0.469231      0.530769     Biso  1.000000 Au
   Au467      1.0     0.161537      0.407691      0.530769     Biso  1.000000 Au
   Au468      1.0     0.161537      0.469231      0.592309     Biso  1.000000 Au
   Au469      1.0     0.223077      0.407691      0.592309     Biso  1.000000 Au
   Au470      1.0     0.223077      0.469231      0.530769     Biso  1.000000 Au
   Au471      1.0     0.284614      0.407691      0.530769     Biso  1.000000 Au
   Au472      1.0     0.284614      0.469231      0.592309     Biso  1.000000 Au
   Au473      1.0     0.346154      0.407691      0.592309     Biso  1.000000 Au
   Au474      1.0     0.346154      0.469231      0.530769     Biso  1.000000 Au
   Au475      1.0     0.407691      0.407691      0.530769     Biso  1.000000 Au
   Au476      1.0     0.407691      0.469231      0.592309     Biso  1.000000 Au
   Au477      1.0     0.469231      0.407691      0.592309     Biso  1.000000 Au
   Au478      1.0     0.469231      0.469231      0.530769     Biso  1.000000 Au
   Au479      1.0     0.530769      0.407691      0.530769     Biso  1.000000 Au
   Au480      1.0     0.530769      0.469231      0.592309     Biso  1.000000 Au
   Au481      1.0     0.592309      0.407691      0.592309     Biso  1.000000 Au
   Au482      1.0     0.592309      0.469231      0.530769     Biso  1.000000 Au
   Au483      1.0     0.653846      0.407691      0.530769     Biso  1.000000 Au
   Au484      1.0     0.653846      0.469231      0.592309     Biso  1.000000 Au
   Au485      1.0     0.715383      0.407691      0.592309     Biso  1.000000 Au
   Au486      1.0     0.715383      0.469231      0.530769     Biso  1.000000 Au
   Au487      1.0     0.776923      0.407691      0.530769     Biso  1.000000 Au
   Au488      1.0     0.776923      0.469231      0.592309     Biso  1.000000 Au
   Au489      1.0     0.838463      0.407691      0.592309     Biso  1.000000 Au
   Au490      1.0     0.838463      0.469231      0.530769     Biso  1.000000 Au
   Au491      1.0     0.900000      0.407691      0.530769     Biso  1.000000 Au
   Au492      1.0     0.900000      0.469231      0.592309     Biso  1.000000 Au
   Au493      1.0     0.100000      0.530769      0.592309     Biso  1.000000 Au
   Au494      1.0     0.100000      0.592309      0.530769     Biso  1.000000 Au
   Au495      1.0     0.161537      0.530769      0.530769     Biso  1.000000 Au
   Au496      1.0     0.161537      0.592309      0.592309     Biso  1.000000 Au
   Au497      1.0     0.223077      0.530769      0.592309     Biso  1.000000 Au
   Au498      1.0     0.223077      0.592309      0.530769     Biso  1.000000 Au
   Au499      1.0     0.284614      0.530769      0.530769     Biso  1.000000 Au
   Au500      1.0     0.284614      0.592309      0.592309     Biso  1.000000 Au
   Au501      1.0     0.346154      0.530769      0.592309     Biso  1.000000 Au
   Au502      1.0     0.346154      0.592309      0.530769     Biso  1.000000 Au
   Au503      1.0     0.407691      0.530769      0.530769     Biso  1.000000 Au
   Au504      1.0     0.407691      0.592309      0.592309     Biso  1.000000 Au
   Au505      1.0     0.469231      0.530769      0.592309     Biso  1.000000 Au
   Au506      1.0     0.469231      0.592309      0.530769     Biso  1.000000 Au
   Au507      1.0     0.530769      0.530769      0.530769     Biso  1.000000 Au
   Au508      1.0     0.530769      0.592309      0.592309     Biso  1.000000 Au
   Au509      1.0     0.592309      0.530769      0.592309     Biso  1.000000 Au
   Au510      1.0     0.592309      0.592309      0.530769     Biso  1.000000 Au
   Au511      1.0     0.653846      0.530769      0.530769     Biso  1.000000 Au
   Au512      1.0     0.653846      0.592309      0.592309     Biso  1.000000 Au
   Au513      1.0     0.715383      0.530769      0.592309     Biso  1.000000 Au
   Au514      1.0     0.715383      0.592309      0.530769     Biso  1.000000 Au
   Au515      1.0     0.776923      0.530769      0.530769     Biso  1.000000 Au
   Au516      1.0     0.776923      0.592309      0.592309     Biso  1.000000 Au
   Au517      1.0     0.838463      0.530769      0.592309     Biso  1.000000 Au
   Au518      1.0     0.838463      0.592309      0.530769     Biso  1.000000 Au
   Au519      1.0     0.900000      0.530769      0.530769     Biso  1.000000 Au
   Au520      1.0     0.900000      0.592309      0.592309     Biso  1.000000 Au
   Au521      1.0     0.100000      0.653846      0.592309     Biso  1.000000 Au
   Au522      1.0     0.161537      0.653846      0.530769     Biso  1.000000 Au
   Au523      1.0     0.161537      0.715383      0.592309     Biso  1.000000 Au
   Au524      1.0     0.223077      0.653846      0.592309     Biso  1.000000 Au
   Au525      1.0     0.223077      0.715383      0.530769     Biso  1.000000 Au
   Au526      1.0     0.284614      0.653846      0.530769     Biso  1.000000 Au
   Au527      1.0     0.284614      0.715383      0.592309     Biso  1.000000 Au
   Au528      1.0     0.346154      0.653846      0.592309     Biso  1.000000 Au
   Au529      1.0     0.346154      0.715383      0.530769     Biso  1.000000 Au
   Au530      1.0     0.407691      0.653846      0.530769     Biso  1.000000 Au
   Au531      1.0     0.407691      0.715383      0.592309     Biso  1.000000 Au
   Au532      1.0     0.469231      0.653846      0.592309     Biso  1.000000 Au
   Au533      1.0     0.469231      0.715383      0.530769     Biso  1.000000 Au
   Au534      1.0     0.530769      0.653846      0.530769     Biso  1.000000 Au
   Au535      1.0     0.530769      0.715383      0.592309     Biso  1.000000 Au
   Au536      1.0     0.592309      0.653846      0.592309     Biso  1.000000 Au
   Au537      1.0     0.592309      0.715383      0.530769     Biso  1.000000 Au
   Au538      1.0     0.653846      0.653846      0.530769     Biso  1.000000 Au
   Au539      1.0     0.653846      0.715383      0.592309     Biso  1.000000 Au
   Au540      1.0     0.715383      0.653846      0.592309     Biso  1.000000 Au
   Au541      1.0     0.715383      0.715383      0.530769     Biso  1.000000 Au
   Au542      1.0     0.776923      0.653846      0.530769     Biso  1.000000 Au
   Au543      1.0     0.776923      0.715383      0.592309     Biso  1.000000 Au
   Au544      1.0     0.838463      0.653846      0.592309     Biso  1.000000 Au
   Au545      1.0     0.838463      0.715383      0.530769     Biso  1.000000 Au
   Au546      1.0     0.900000      0.653846      0.530769     Biso  1.000000 Au
   Au547      1.0     0.161537      0.776923      0.530769     Biso  1.000000 Au
   Au548      1.0     0.223077      0.776923      0.592309     Biso  1.000000 Au
   Au549      1.0     0.223077      0.838463      0.530769     Biso  1.000000 Au
   Au550      1.0     0.284614      0.776923      0.530769     Biso  1.000000 Au
   Au551      1.0     0.284614      0.838463      0.592309     Biso  1.000000 Au
   Au552      1.0     0.346154      0.776923      0.592309     Biso  1.000000 Au
   Au553      1.0     0.346154      0.838463      0.530769     Biso  1.000000 Au
   Au554      1.0     0.407691      0.776923      0.530769     Biso  1.000000 Au
   Au555      1.0     0.407691      0.838463      0.592309     Biso  1.000000 Au
   Au556      1.0     0.469231      0.776923      0.592309     Biso  1.000000 Au
   Au557      1.0     0.469231      0.838463      0.530769     Biso  1.000000 Au
   Au558      1.0     0.530769      0.776923      0.530769     Biso  1.000000 Au
   Au559      1.0     0.530769      0.838463      0.592309     Biso  1.000000 Au
   Au560      1.0     0.592309      0.776923      0.592309     Biso  1.000000 Au
   Au561      1.0     0.592309      0.838463      0.530769     Biso  1.000000 Au
   Au562      1.0     0.653846      0.776923      0.530769     Biso  1.000000 Au
   Au563      1.0     0.653846      0.838463      0.592309     Biso  1.000000 Au
   Au564      1.0     0.715383      0.776923      0.592309     Biso  1.000000 Au
   Au565      1.0     0.715383      0.838463      0.530769     Biso  1.000000 Au
   Au566      1.0     0.776923      0.776923      0.530769     Biso  1.000000 Au
   Au567      1.0     0.776923      0.838463      0.592309     Biso  1.000000 Au
   Au568      1.0     0.838463      0.776923      0.592309     Biso  1.000000 Au
   Au569      1.0     0.346154      0.900000      0.592309     Biso  1.000000 Au
   Au570      1.0     0.407691      0.900000      0.530769     Biso  1.000000 Au
   Au571      1.0     0.469231      0.900000      0.592309     Biso  1.000000 Au
   Au572      1.0     0.530769      0.900000      0.530769     Biso  1.000000 Au
   Au573      1.0     0.592309      0.900000      0.592309     Biso  1.000000 Au
   Au574      1.0     0.653846      0.900000      0.530769     Biso  1.000000 Au
   Au575      1.0     0.469231      0.100000      0.653846     Biso  1.000000 Au
   Au576      1.0     0.592309      0.100000      0.653846     Biso  1.000000 Au
   Au577      1.0     0.223077      0.223077      0.653846     Biso  1.000000 Au
   Au578      1.0     0.284614      0.161537      0.653846     Biso  1.000000 Au
   Au579      1.0     0.284614      0.223077      0.715383     Biso  1.000000 Au
   Au580      1.0     0.346154      0.161537      0.715383     Biso  1.000000 Au
   Au581      1.0     0.346154      0.223077      0.653846     Biso  1.000000 Au
   Au582      1.0     0.407691      0.161537      0.653846     Biso  1.000000 Au
   Au583      1.0     0.407691      0.223077      0.715383     Biso  1.000000 Au
   Au584      1.0     0.469231      0.161537      0.715383     Biso  1.000000 Au
   Au585      1.0     0.469231      0.223077      0.653846     Biso  1.000000 Au
   Au586      1.0     0.530769      0.161537      0.653846     Biso  1.000000 Au
   Au587      1.0     0.530769      0.223077      0.715383     Biso  1.000000 Au
   Au588      1.0     0.592309      0.161537      0.715383     Biso  1.000000 Au
   Au589      1.0     0.592309      0.223077      0.653846     Biso  1.000000 Au
   Au590      1.0     0.653846      0.161537      0.653846     Biso  1.000000 Au
   Au591      1.0     0.653846      0.223077      0.715383     Biso  1.000000 Au
   Au592      1.0     0.715383      0.223077      0.653846     Biso  1.000000 Au
   Au593      1.0     0.776923      0.223077      0.715383     Biso  1.000000 Au
   Au594      1.0     0.161537      0.284614      0.653846     Biso  1.000000 Au
   Au595      1.0     0.161537      0.346154      0.715383     Biso  1.000000 Au
   Au596      1.0     0.223077      0.284614      0.715383     Biso  1.000000 Au
   Au597      1.0     0.223077      0.346154      0.653846     Biso  1.000000 Au
   Au598      1.0     0.284614      0.284614      0.653846     Biso  1.000000 Au
   Au599      1.0     0.284614      0.346154      0.715383     Biso  1.000000 Au
   Au600      1.0     0.346154      0.284614      0.715383     Biso  1.000000 Au
   Au601      1.0     0.346154      0.346154      0.653846     Biso  1.000000 Au
   Au602      1.0     0.407691      0.284614      0.653846     Biso  1.000000 Au
   Au603      1.0     0.407691      0.346154      0.715383     Biso  1.000000 Au
   Au604      1.0     0.469231      0.284614      0.715383     Biso  1.000000 Au
   Au605      1.0     0.469231      0.346154      0.653846     Biso  1.000000 Au
   Au606      1.0     0.530769      0.284614      0.653846     Biso  1.000000 Au
   Au607      1.0     0.530769      0.346154      0.715383     Biso  1.000000 Au
   Au608      1.0     0.592309      0.284614      0.715383     Biso  1.000000 Au
   Au609      1.0     0.592309      0.346154      0.653846     Biso  1.000000 Au
   Au610      1.0     0.653846      0.284614      0.653846     Biso  1.000000 Au
   Au611      1.0     0.653846      0.346154      0.715383     Biso  1.000000 Au
   Au612      1.0     0.715383      0.284614      0.715383     Biso  1.000000 Au
   Au613      1.0     0.715383      0.346154      0.653846     Biso  1.000000 Au
   Au614      1.0     0.776923      0.284614      0.653846     Biso  1.000000 Au
   Au615      1.0     0.776923      0.346154      0.715383     Biso  1.000000 Au
   Au616      1.0     0.838463      0.346154      0.653846     Biso  1.000000 Au
   Au617      1.0     0.100000      0.469231      0.653846     Biso  1.000000 Au
   Au618      1.0     0.161537      0.407691      0.653846     Biso  1.000000 Au
   Au619      1.0     0.161537      0.469231      0.715383     Biso  1.000000 Au
   Au620      1.0     0.223077      0.407691      0.715383     Biso  1.000000 Au
   Au621      1.0     0.223077      0.469231      0.653846     Biso  1.000000 Au
   Au622      1.0     0.284614      0.407691      0.653846     Biso  1.000000 Au
   Au623      1.0     0.284614      0.469231      0.715383     Biso  1.000000 Au
   Au624      1.0     0.346154      0.407691      0.715383     Biso  1.000000 Au
   Au625      1.0     0.346154      0.469231      0.653846     Biso  1.000000 Au
   Au626      1.0     0.407691      0.407691      0.653846     Biso  1.000000 Au
   Au627      1.0     0.407691      0.469231      0.715383     Biso  1.000000 Au
   Au628      1.0     0.469231      0.407691      0.715383     Biso  1.000000 Au
   Au629      1.0     0.469231      0.469231      0.653846     Biso  1.000000 Au
   Au630      1.0     0.530769      0.407691      0.653846     Biso  1.000000 Au
   Au631      1.0     0.530769      0.469231      0.715383     Biso  1.000000 Au
   Au632      1.0     0.592309      0.407691      0.715383     Biso  1.000000 Au
   Au633      1.0     0.592309      0.469231      0.653846     Biso  1.000000 Au
   Au634      1.0     0.653846      0.407691      0.653846     Biso  1.000000 Au
   Au635      1.0     0.653846      0.469231      0.715383     Biso  1.000000 Au
   Au636      1.0     0.715383      0.407691      0.715383     Biso  1.000000 Au
   Au637      1.0     0.715383      0.469231      0.653846     Biso  1.000000 Au
   Au638      1.0     0.776923      0.407691      0.653846     Biso  1.000000 Au
   Au639      1.0     0.776923      0.469231      0.715383     Biso  1.000000 Au
   Au640      1.0     0.838463      0.407691      0.715383     Biso  1.000000 Au
   Au641      1.0     0.838463      0.469231      0.653846     Biso  1.000000 Au
   Au642      1.0     0.900000      0.407691      0.653846     Biso  1.000000 Au
   Au643      1.0     0.100000      0.592309      0.653846     Biso  1.000000 Au
   Au644      1.0     0.161537      0.530769      0.653846     Biso  1.000000 Au
   Au645      1.0     0.161537      0.592309      0.715383     Biso  1.000000 Au
   Au646      1.0     0.223077      0.530769      0.715383     Biso  1.000000 Au
   Au647      1.0     0.223077      0.592309      0.653846     Biso  1.000000 Au
   Au648      1.0     0.284614      0.530769      0.653846     Biso  1.000000 Au
   Au649      1.0     0.284614      0.592309      0.715383     Biso  1.000000 Au
   Au650      1.0     0.346154      0.530769      0.715383     Biso  1.000000 Au
   Au651      1.0     0.346154      0.592309      0.653846     Biso  1.000000 Au
   Au652      1.0     0.407691      0.530769      0.653846     Biso  1.000000 Au
   Au653      1.0     0.407691      0.592309      0.715383     Biso  1.000000 Au
   Au654      1.0     0.469231      0.530769      0.715383     Biso  1.000000 Au
   Au655      1.0     0.469231      0.592309      0.653846     Biso  1.000000 Au
   Au656      1.0     0.530769      0.530769      0.653846     Biso  1.000000 Au
   Au657      1.0     0.530769      0.592309      0.715383     Biso  1.000000 Au
   Au658      1.0     0.592309      0.530769      0.715383     Biso  1.000000 Au
   Au659      1.0     0.592309      0.592309      0.653846     Biso  1.000000 Au
   Au660      1.0     0.653846      0.530769      0.653846     Biso  1.000000 Au
   Au661      1.0     0.653846      0.592309      0.715383     Biso  1.000000 Au
   Au662      1.0     0.715383      0.530769      0.715383     Biso  1.000000 Au
   Au663      1.0     0.715383      0.592309      0.653846     Biso  1.000000 Au
   Au664      1.0     0.776923      0.530769      0.653846     Biso  1.000000 Au
   Au665      1.0     0.776923      0.592309      0.715383     Biso  1.000000 Au
   Au666      1.0     0.838463      0.530769      0.715383     Biso  1.000000 Au
   Au667      1.0     0.838463      0.592309      0.653846     Biso  1.000000 Au
   Au668      1.0     0.900000      0.530769      0.653846     Biso  1.000000 Au
   Au669      1.0     0.161537      0.653846      0.653846     Biso  1.000000 Au
   Au670      1.0     0.223077      0.653846      0.715383     Biso  1.000000 Au
   Au671      1.0     0.223077      0.715383      0.653846     Biso  1.000000 Au
   Au672      1.0     0.284614      0.653846      0.653846     Biso  1.000000 Au
   Au673      1.0     0.284614      0.715383      0.715383     Biso  1.000000 Au
   Au674      1.0     0.346154      0.653846      0.715383     Biso  1.000000 Au
   Au675      1.0     0.346154      0.715383      0.653846     Biso  1.000000 Au
   Au676      1.0     0.407691      0.653846      0.653846     Biso  1.000000 Au
   Au677      1.0     0.407691      0.715383      0.715383     Biso  1.000000 Au
   Au678      1.0     0.469231      0.653846      0.715383     Biso  1.000000 Au
   Au679      1.0     0.469231      0.715383      0.653846     Biso  1.000000 Au
   Au680      1.0     0.530769      0.653846      0.653846     Biso  1.000000 Au
   Au681      1.0     0.530769      0.715383      0.715383     Biso  1.000000 Au
   Au682      1.0     0.592309      0.653846      0.715383     Biso  1.000000 Au
   Au683      1.0     0.592309      0.715383      0.653846     Biso  1.000000 Au
   Au684      1.0     0.653846      0.653846      0.653846     Biso  1.000000 Au
   Au685      1.0     0.653846      0.715383      0.715383     Biso  1.000000 Au
   Au686      1.0     0.715383      0.653846      0.715383     Biso  1.000000 Au
   Au687      1.0     0.715383      0.715383      0.653846     Biso  1.000000 Au
   Au688      1.0     0.776923      0.653846      0.653846     Biso  1.000000 Au
   Au689      1.0     0.776923      0.715383      0.715383     Biso  1.000000 Au
   Au690      1.0     0.838463      0.653846      0.715383     Biso  1.000000 Au
   Au691      1.0     0.838463      0.715383      0.653846     Biso  1.000000 Au
   Au692      1.0     0.223077      0.776923      0.715383     Biso  1.000000 Au
   Au693      1.0     0.284614      0.776923      0.653846     Biso  1.000000 Au
   Au694      1.0     0.346154      0.776923      0.715383     Biso  1.000000 Au
   Au695      1.0     0.346154      0.838463      0.653846     Biso  1.000000 Au
   Au696      1.0     0.407691      0.776923      0.653846     Biso  1.000000 Au
   Au697      1.0     0.407691      0.838463      0.715383     Biso  1.000000 Au
   Au698      1.0     0.469231      0.776923      0.715383     Biso  1.000000 Au
   Au699      1.0     0.469231      0.838463      0.653846     Biso  1.000000 Au
   Au700      1.0     0.530769      0.776923      0.653846     Biso  1.000000 Au
   Au701      1.0     0.530769      0.838463      0.715383     Biso  1.000000 Au
   Au702      1.0     0.592309      0.776923      0.715383     Biso  1.000000 Au
   Au703      1.0     0.592309      0.838463      0.653846     Biso  1.000000 Au
   Au704      1.0     0.653846      0.776923      0.653846     Biso  1.000000 Au
   Au705      1.0     0.653846      0.838463      0.715383     Biso  1.000000 Au
   Au706      1.0     0.715383      0.776923      0.715383     Biso  1.000000 Au
   Au707      1.0     0.715383      0.838463      0.653846     Biso  1.000000 Au
   Au708      1.0     0.776923      0.776923      0.653846     Biso  1.000000 Au
   Au709      1.0     0.407691      0.900000      0.653846     Biso  1.000000 Au
   Au710      1.0     0.530769      0.900000      0.653846     Biso  1.000000 Au
   Au711      1.0     0.346154      0.223077      0.776923     Biso  1.000000 Au
   Au712      1.0     0.407691      0.161537      0.776923     Biso  1.000000 Au
   Au713      1.0     0.407691      0.223077      0.838463     Biso  1.000000 Au
   Au714      1.0     0.469231      0.223077      0.776923     Biso  1.000000 Au
   Au715      1.0     0.530769      0.161537      0.776923     Biso  1.000000 Au
   Au716      1.0     0.530769      0.223077      0.838463     Biso  1.000000 Au
   Au717      1.0     0.592309      0.223077      0.776923     Biso  1.000000 Au
   Au718      1.0     0.715383      0.223077      0.776923     Biso  1.000000 Au
   Au719      1.0     0.223077      0.346154      0.776923     Biso  1.000000 Au
   Au720      1.0     0.284614      0.284614      0.776923     Biso  1.000000 Au
   Au721      1.0     0.284614      0.346154      0.838463     Biso  1.000000 Au
   Au722      1.0     0.346154      0.284614      0.838463     Biso  1.000000 Au
   Au723      1.0     0.346154      0.346154      0.776923     Biso  1.000000 Au
   Au724      1.0     0.407691      0.284614      0.776923     Biso  1.000000 Au
   Au725      1.0     0.407691      0.346154      0.838463     Biso  1.000000 Au
   Au726      1.0     0.469231      0.284614      0.838463     Biso  1.000000 Au
   Au727      1.0     0.469231      0.346154      0.776923     Biso  1.000000 Au
   Au728      1.0     0.530769      0.284614      0.776923     Biso  1.000000 Au
   Au729      1.0     0.530769      0.346154      0.838463     Biso  1.000000 Au
   Au730      1.0     0.592309      0.284614      0.838463     Biso  1.000000 Au
   Au731      1.0     0.592309      0.346154      0.776923     Biso  1.000000 Au
   Au732      1.0     0.653846      0.284614      0.776923     Biso  1.000000 Au
   Au733      1.0     0.653846      0.346154      0.838463     Biso  1.000000 Au
   Au734      1.0     0.715383      0.346154      0.776923     Biso  1.000000 Au
   Au735      1.0     0.776923      0.284614      0.776923     Biso  1.000000 Au
   Au736      1.0     0.161537      0.407691      0.776923     Biso  1.000000 Au
   Au737      1.0     0.223077      0.407691      0.838463     Biso  1.000000 Au
   Au738      1.0     0.223077      0.469231      0.776923     Biso  1.000000 Au
   Au739      1.0     0.284614      0.407691      0.776923     Biso  1.000000 Au
   Au740      1.0     0.284614      0.469231      0.838463     Biso  1.000000 Au
   Au741      1.0     0.346154      0.407691      0.838463     Biso  1.000000 Au
   Au742      1.0     0.346154      0.469231      0.776923     Biso  1.000000 Au
   Au743      1.0     0.407691      0.407691      0.776923     Biso  1.000000 Au
   Au744      1.0     0.407691      0.469231      0.838463     Biso  1.000000 Au
   Au745      1.0     0.469231      0.407691      0.838463     Biso  1.000000 Au
   Au746      1.0     0.469231      0.469231      0.776923     Biso  1.000000 Au
   Au747      1.0     0.530769      0.407691      0.776923     Biso  1.000000 Au
   Au748      1.0     0.530769      0.469231      0.838463     Biso  1.000000 Au
   Au749      1.0     0.592309      0.407691      0.838463     Biso  1.000000 Au
   Au750      1.0     0.592309      0.469231      0.776923     Biso  1.000000 Au
   Au751      1.0     0.653846      0.407691      0.776923     Biso  1.000000 Au
   Au752      1.0     0.653846      0.469231      0.838463     Biso  1.000000 Au
   Au753      1.0     0.715383      0.407691      0.838463     Biso  1.000000 Au
   Au754      1.0     0.715383      0.469231      0.776923     Biso  1.000000 Au
   Au755      1.0     0.776923      0.407691      0.776923     Biso  1.000000 Au
   Au756      1.0     0.776923      0.469231      0.838463     Biso  1.000000 Au
   Au757      1.0     0.838463      0.469231      0.776923     Biso  1.000000 Au
   Au758      1.0     0.161537      0.530769      0.776923     Biso  1.000000 Au
   Au759      1.0     0.223077      0.530769      0.838463     Biso  1.000000 Au
   Au760      1.0     0.223077      0.592309      0.776923     Biso  1.000000 Au
   Au761      1.0     0.284614      0.530769      0.776923     Biso  1.000000 Au
   Au762      1.0     0.284614      0.592309      0.838463     Biso  1.000000 Au
   Au763      1.0     0.346154      0.530769      0.838463     Biso  1.000000 Au
   Au764      1.0     0.346154      0.592309      0.776923     Biso  1.000000 Au
   Au765      1.0     0.407691      0.530769      0.776923     Biso  1.000000 Au
   Au766      1.0     0.407691      0.592309      0.838463     Biso  1.000000 Au
   Au767      1.0     0.469231      0.530769      0.838463     Biso  1.000000 Au
   Au768      1.0     0.469231      0.592309      0.776923     Biso  1.000000 Au
   Au769      1.0     0.530769      0.530769      0.776923     Biso  1.000000 Au
   Au770      1.0     0.530769      0.592309      0.838463     Biso  1.000000 Au
   Au771      1.0     0.592309      0.530769      0.838463     Biso  1.000000 Au
   Au772      1.0     0.592309      0.592309      0.776923     Biso  1.000000 Au
   Au773      1.0     0.653846      0.530769      0.776923     Biso  1.000000 Au
   Au774      1.0     0.653846      0.592309      0.838463     Biso  1.000000 Au
   Au775      1.0     0.715383      0.530769      0.838463     Biso  1.000000 Au
   Au776      1.0     0.715383      0.592309      0.776923     Biso  1.000000 Au
   Au777      1.0     0.776923      0.530769      0.776923     Biso  1.000000 Au
   Au778      1.0     0.776923      0.592309      0.838463     Biso  1.000000 Au
   Au779      1.0     0.838463      0.592309      0.776923     Biso  1.000000 Au
   Au780      1.0     0.223077      0.715383      0.776923     Biso  1.000000 Au
   Au781      1.0     0.284614      0.653846      0.776923     Biso  1.000000 Au
   Au782      1.0     0.346154      0.653846      0.838463     Biso  1.000000 Au
   Au783      1.0     0.346154      0.715383      0.776923     Biso  1.000000 Au
   Au784      1.0     0.407691      0.653846      0.776923     Biso  1.000000 Au
   Au785      1.0     0.407691      0.715383      0.838463     Biso  1.000000 Au
   Au786      1.0     0.469231      0.653846      0.838463     Biso  1.000000 Au
   Au787      1.0     0.469231      0.715383      0.776923     Biso  1.000000 Au
   Au788      1.0     0.530769      0.653846      0.776923     Biso  1.000000 Au
   Au789      1.0     0.530769      0.715383      0.838463     Biso  1.000000 Au
   Au790      1.0     0.592309      0.653846      0.838463     Biso  1.000000 Au
   Au791      1.0     0.592309      0.715383      0.776923     Biso  1.000000 Au
   Au792      1.0     0.653846      0.653846      0.776923     Biso  1.000000 Au
   Au793      1.0     0.653846      0.715383      0.838463     Biso  1.000000 Au
   Au794      1.0     0.715383      0.653846      0.838463     Biso  1.000000 Au
   Au795      1.0     0.715383      0.715383      0.776923     Biso  1.000000 Au
   Au796      1.0     0.776923      0.653846      0.776923     Biso  1.000000 Au
   Au797      1.0     0.284614      0.776923      0.776923     Biso  1.000000 Au
   Au798      1.0     0.407691      0.776923      0.776923     Biso  1.000000 Au
   Au799      1.0     0.469231      0.776923      0.838463     Biso  1.000000 Au
   Au800      1.0     0.469231      0.838463      0.776923     Biso  1.000000 Au
   Au801      1.0     0.530769      0.776923      0.776923     Biso  1.000000 Au
   Au802      1.0     0.592309      0.776923      0.838463     Biso  1.000000 Au
   Au803      1.0     0.592309      0.838463      0.776923     Biso  1.000000 Au
   Au804      1.0     0.653846      0.776923      0.776923     Biso  1.000000 Au
   Au805      1.0     0.469231      0.346154      0.900000     Biso  1.000000 Au
   Au806      1.0     0.592309      0.346154      0.900000     Biso  1.000000 Au
   Au807      1.0     0.346154      0.469231      0.900000     Biso  1.000000 Au
   Au808      1.0     0.407691      0.407691      0.900000     Biso  1.000000 Au
   Au809      1.0     0.469231      0.469231      0.900000     Biso  1.000000 Au
   Au810      1.0     0.530769      0.407691      0.900000     Biso  1.000000 Au
   Au811      1.0     0.592309      0.469231      0.900000     Biso  1.000000 Au
   Au812      1.0     0.653846      0.407691      0.900000     Biso  1.000000 Au
   Au813      1.0     0.346154      0.592309      0.900000     Biso  1.000000 Au
   Au814      1.0     0.407691      0.530769      0.900000     Biso  1.000000 Au
   Au815      1.0     0.469231      0.592309      0.900000     Biso  1.000000 Au
   Au816      1.0     0.530769      0.530769      0.900000     Biso  1.000000 Au
   Au817      1.0     0.592309      0.592309      0.900000     Biso  1.000000 Au
   Au818      1.0     0.653846      0.530769      0.900000     Biso  1.000000 Au
   Au819      1.0     0.407691      0.653846      0.900000     Biso  1.000000 Au
   Au820      1.0     0.530769      0.653846      0.900000     Biso  1.000000 Au
